! B2 tapered hollow tube
! Phase 14 validation-only APDL deck. Do not feed results into aero ranking or gates.
/CLEAR,NOSTART
/PREP7
MP,EX,1,2.300000000e+11
MP,PRXY,1,0.27
MP,DENS,1,1600

ET,1,BEAM188
KEYOPT,1,3,2

! Keypoints along spanwise Y.
K,1,0,0,0
K,2,0,0.5,0
K,3,0,1,0
K,4,0,1.5,0
K,5,0,2,0
K,6,0,2.5,0
K,7,0,3,0
K,8,0,3.5,0
K,9,0,4,0
K,10,0,4.5,0
K,11,0,5,0
K,12,0,5.5,0
K,13,0,6,0
K,14,0,6.5,0
K,15,0,7,0
K,16,0,7.5,0
K,17,0,8,0
K,18,0,8.5,0
K,19,0,9,0
K,20,0,9.5,0
K,21,0,10,0
L,1,2
L,2,3
L,3,4
L,4,5
L,5,6
L,6,7
L,7,8
L,8,9
L,9,10
L,10,11
L,11,12
L,12,13
L,13,14
L,14,15
L,15,16
L,16,17
L,17,18
L,18,19
L,19,20
L,20,21
SECTYPE,1,BEAM,CTUBE
SECDATA,3.784000000e-02,3.962500000e-02
LSEL,S,LINE,,1
LATT,1,,1,,,,1
LESIZE,ALL,,,1
LMESH,ALL
SECTYPE,2,BEAM,CTUBE
SECDATA,3.712000000e-02,3.887500000e-02
LSEL,S,LINE,,2
LATT,1,,1,,,,2
LESIZE,ALL,,,1
LMESH,ALL
SECTYPE,3,BEAM,CTUBE
SECDATA,3.640000000e-02,3.812500000e-02
LSEL,S,LINE,,3
LATT,1,,1,,,,3
LESIZE,ALL,,,1
LMESH,ALL
SECTYPE,4,BEAM,CTUBE
SECDATA,3.568000000e-02,3.737500000e-02
LSEL,S,LINE,,4
LATT,1,,1,,,,4
LESIZE,ALL,,,1
LMESH,ALL
SECTYPE,5,BEAM,CTUBE
SECDATA,3.496000000e-02,3.662500000e-02
LSEL,S,LINE,,5
LATT,1,,1,,,,5
LESIZE,ALL,,,1
LMESH,ALL
SECTYPE,6,BEAM,CTUBE
SECDATA,3.424000000e-02,3.587500000e-02
LSEL,S,LINE,,6
LATT,1,,1,,,,6
LESIZE,ALL,,,1
LMESH,ALL
SECTYPE,7,BEAM,CTUBE
SECDATA,3.352000000e-02,3.512500000e-02
LSEL,S,LINE,,7
LATT,1,,1,,,,7
LESIZE,ALL,,,1
LMESH,ALL
SECTYPE,8,BEAM,CTUBE
SECDATA,3.280000000e-02,3.437500000e-02
LSEL,S,LINE,,8
LATT,1,,1,,,,8
LESIZE,ALL,,,1
LMESH,ALL
SECTYPE,9,BEAM,CTUBE
SECDATA,3.208000000e-02,3.362500000e-02
LSEL,S,LINE,,9
LATT,1,,1,,,,9
LESIZE,ALL,,,1
LMESH,ALL
SECTYPE,10,BEAM,CTUBE
SECDATA,3.136000000e-02,3.287500000e-02
LSEL,S,LINE,,10
LATT,1,,1,,,,10
LESIZE,ALL,,,1
LMESH,ALL
SECTYPE,11,BEAM,CTUBE
SECDATA,3.064000000e-02,3.212500000e-02
LSEL,S,LINE,,11
LATT,1,,1,,,,11
LESIZE,ALL,,,1
LMESH,ALL
SECTYPE,12,BEAM,CTUBE
SECDATA,2.992000000e-02,3.137500000e-02
LSEL,S,LINE,,12
LATT,1,,1,,,,12
LESIZE,ALL,,,1
LMESH,ALL
SECTYPE,13,BEAM,CTUBE
SECDATA,2.920000000e-02,3.062500000e-02
LSEL,S,LINE,,13
LATT,1,,1,,,,13
LESIZE,ALL,,,1
LMESH,ALL
SECTYPE,14,BEAM,CTUBE
SECDATA,2.848000000e-02,2.987500000e-02
LSEL,S,LINE,,14
LATT,1,,1,,,,14
LESIZE,ALL,,,1
LMESH,ALL
SECTYPE,15,BEAM,CTUBE
SECDATA,2.776000000e-02,2.912500000e-02
LSEL,S,LINE,,15
LATT,1,,1,,,,15
LESIZE,ALL,,,1
LMESH,ALL
SECTYPE,16,BEAM,CTUBE
SECDATA,2.704000000e-02,2.837500000e-02
LSEL,S,LINE,,16
LATT,1,,1,,,,16
LESIZE,ALL,,,1
LMESH,ALL
SECTYPE,17,BEAM,CTUBE
SECDATA,2.632000000e-02,2.762500000e-02
LSEL,S,LINE,,17
LATT,1,,1,,,,17
LESIZE,ALL,,,1
LMESH,ALL
SECTYPE,18,BEAM,CTUBE
SECDATA,2.560000000e-02,2.687500000e-02
LSEL,S,LINE,,18
LATT,1,,1,,,,18
LESIZE,ALL,,,1
LMESH,ALL
SECTYPE,19,BEAM,CTUBE
SECDATA,2.488000000e-02,2.612500000e-02
LSEL,S,LINE,,19
LATT,1,,1,,,,19
LESIZE,ALL,,,1
LMESH,ALL
SECTYPE,20,BEAM,CTUBE
SECDATA,2.416000000e-02,2.537500000e-02
LSEL,S,LINE,,20
LATT,1,,1,,,,20
LESIZE,ALL,,,1
LMESH,ALL
ALLSEL,ALL
DK,1,ALL,0

FK,1,FZ,-2.000000000e+00
FK,2,FZ,-4.000000000e+00
FK,3,FZ,-4.000000000e+00
FK,4,FZ,-4.000000000e+00
FK,5,FZ,-4.000000000e+00
FK,6,FZ,-4.000000000e+00
FK,7,FZ,-4.000000000e+00
FK,8,FZ,-4.000000000e+00
FK,9,FZ,-4.000000000e+00
FK,10,FZ,-4.000000000e+00
FK,11,FZ,-4.000000000e+00
FK,12,FZ,-4.000000000e+00
FK,13,FZ,-4.000000000e+00
FK,14,FZ,-4.000000000e+00
FK,15,FZ,-4.000000000e+00
FK,16,FZ,-4.000000000e+00
FK,17,FZ,-4.000000000e+00
FK,18,FZ,-4.000000000e+00
FK,19,FZ,-4.000000000e+00
FK,20,FZ,-4.000000000e+00
FK,21,FZ,-2.000000000e+00
FINISH
/SOLU
ANTYPE,STATIC
SOLVE
FINISH
/POST1
SET,LAST
*GET,TIP_UZ,NODE,21,U,Z
*GET,ROOT_RFZ,NODE,1,RF,FZ
ETABLE,SEQV,S,EQV
*GET,MAXSEQV,ETAB,SEQV,MAX
CASEID='B2_TAPERED_TUBE'
ROUTE='APDL_BEAM188_CTUBE'
STATUS='RAN'
NOTE='root fixed distributed vertical load'
*CFOPEN,phase14_apdl_results,csv,,APPEND
*VWRITE,CASEID,ROUTE,STATUS,TIP_UZ,0,ROOT_RFZ,0,MAXSEQV,NOTE
(A32,',',A32,',',A12,',',E16.8,',',E16.8,',',E16.8,',',E16.8,',',E16.8,',',A64)
*CFCLOS
FINISH
! Applied total FZ [N] = -8.000000000e+01
