! B5 single tube torsion
! Phase 14 validation-only APDL deck. Do not feed results into aero ranking or gates.
/CLEAR,NOSTART
/PREP7
MP,EX,1,2.300000000e+11
MP,PRXY,1,0.27
MP,DENS,1,1600

ET,1,BEAM188
KEYOPT,1,3,2
K,1,0,0,0
K,2,0,0.5,0
K,3,0,1,0
K,4,0,1.5,0
K,5,0,2,0
K,6,0,2.5,0
K,7,0,3,0
K,8,0,3.5,0
K,9,0,4,0
K,10,0,4.5,0
K,11,0,5,0
K,12,0,5.5,0
K,13,0,6,0
K,14,0,6.5,0
K,15,0,7,0
K,16,0,7.5,0
K,17,0,8,0
K,18,0,8.5,0
K,19,0,9,0
K,20,0,9.5,0
K,21,0,10,0
L,1,2
L,2,3
L,3,4
L,4,5
L,5,6
L,6,7
L,7,8
L,8,9
L,9,10
L,10,11
L,11,12
L,12,13
L,13,14
L,14,15
L,15,16
L,16,17
L,17,18
L,18,19
L,19,20
L,20,21
SECTYPE,1,BEAM,CTUBE
SECDATA,2.850000000e-02,3.000000000e-02
LSEL,ALL
LATT,1,,1,,,,1
LESIZE,ALL,,,1
LMESH,ALL
ALLSEL,ALL
DK,1,ALL,0
FK,21,MY,1.000000000e+02
FINISH
/SOLU
ANTYPE,STATIC
SOLVE
FINISH
/POST1
SET,LAST
*GET,TIP_ROTY,NODE,21,ROT,Y
*GET,ROOT_TORQUE,NODE,1,RF,MY
ETABLE,SEQV,S,EQV
*GET,MAXSEQV,ETAB,SEQV,MAX
CASEID='B5_SINGLE_TORSION'
ROUTE='APDL_BEAM188_CTUBE'
STATUS='RAN'
NOTE='tip MY torque compare theta TL over GJ'
*CFOPEN,phase14_apdl_results,csv,,APPEND
*VWRITE,CASEID,ROUTE,STATUS,0,TIP_ROTY,0,ROOT_TORQUE,MAXSEQV,NOTE
(A32,',',A32,',',A12,',',E16.8,',',E16.8,',',E16.8,',',E16.8,',',E16.8,',',A64)
*CFCLOS
FINISH
