! B5_DUAL_DIRECT_MY
! Phase 14 validation-only APDL deck. Do not feed results into aero ranking or gates.
/CLEAR,NOSTART
/PREP7
MP,EX,1,2.300000000e+11
MP,PRXY,1,0.27
MP,DENS,1,1600

ET,1,BEAM188
KEYOPT,1,3,2
K,1,0,0,0
K,101,0.35,0,0
K,2,0,0.833333333,0
K,102,0.35,0.833333333,0
K,3,0,1.66666667,0
K,103,0.35,1.66666667,0
K,4,0,2.5,0
K,104,0.35,2.5,0
K,5,0,3.33333333,0
K,105,0.35,3.33333333,0
K,6,0,4.16666667,0
K,106,0.35,4.16666667,0
K,7,0,5,0
K,107,0.35,5,0
K,8,0,5.83333333,0
K,108,0.35,5.83333333,0
K,9,0,6.66666667,0
K,109,0.35,6.66666667,0
K,10,0,7.5,0
K,110,0.35,7.5,0
! ... 6 like lines cut
L,1,2
L,101,102
L,2,3
L,102,103
L,3,4
L,103,104
L,4,5
L,104,105
L,5,6
L,105,106
L,6,7
L,106,107
L,7,8
L,107,108
L,8,9
L,108,109
L,9,10
L,109,110
L,10,11
L,110,111
! ... 4 like lines cut
SECTYPE,1,BEAM,CTUBE
SECDATA,2.82e-2,3.0e-2
LSEL,ALL
LATT,1,,1,,,,1
LESIZE,ALL,,,1
LMESH,ALL
ALLSEL,ALL
DK,1,ALL,0
DK,101,ALL,0
! Equal-DOF links approximate rigid rib stations.
CE,NEXT,0,3,UX,1,103,UX,-1
CE,NEXT,0,3,UY,1,103,UY,-1
CE,NEXT,0,3,UZ,1,103,UZ,-1
CE,NEXT,0,3,ROTX,1,103,ROTX,-1
CE,NEXT,0,3,ROTY,1,103,ROTY,-1
CE,NEXT,0,3,ROTZ,1,103,ROTZ,-1
CE,NEXT,0,5,UX,1,105,UX,-1
CE,NEXT,0,5,UY,1,105,UY,-1
CE,NEXT,0,5,UZ,1,105,UZ,-1
CE,NEXT,0,5,ROTX,1,105,ROTX,-1
CE,NEXT,0,5,ROTY,1,105,ROTY,-1
CE,NEXT,0,5,ROTZ,1,105,ROTZ,-1
CE,NEXT,0,7,UX,1,107,UX,-1
CE,NEXT,0,7,UY,1,107,UY,-1
CE,NEXT,0,7,UZ,1,107,UZ,-1
CE,NEXT,0,7,ROTX,1,107,ROTX,-1
CE,NEXT,0,7,ROTY,1,107,ROTY,-1
CE,NEXT,0,7,ROTZ,1,107,ROTZ,-1
CE,NEXT,0,9,UX,1,109,UX,-1
CE,NEXT,0,9,UY,1,109,UY,-1
CE,NEXT,0,9,UZ,1,109,UZ,-1
CE,NEXT,0,9,ROTX,1,109,ROTX,-1
CE,NEXT,0,9,ROTY,1,109,ROTY,-1
CE,NEXT,0,9,ROTZ,1,109,ROTZ,-1
CE,NEXT,0,11,UX,1,111,UX,-1
CE,NEXT,0,11,UY,1,111,UY,-1
CE,NEXT,0,11,UZ,1,111,UZ,-1
CE,NEXT,0,11,ROTX,1,111,ROTX,-1
CE,NEXT,0,11,ROTY,1,111,ROTY,-1
CE,NEXT,0,11,ROTZ,1,111,ROTZ,-1
FK,13,MY,4.000000000e+01
FINISH
/SOLU
ANTYPE,STATIC
SOLVE
FINISH
/POST1
SET,LAST
*GET,MAIN_TIP_UZ,NODE,13,U,Z
*GET,REAR_TIP_UZ,NODE,113,U,Z
*GET,ROOT_TORQUE,NODE,1,RF,MY
ETABLE,SEQV,S,EQV
*GET,MAXSEQV,ETAB,SEQV,MAX
CASEID='B5_DUAL_DIRECT_MY'
ROUTE='APDL_DUAL_BEAM_DIRECT_MY'
STATUS='RAN'
NOTE='direct MY torque ownership case'
*CFOPEN,phase14_apdl_results,csv,,APPEND
*VWRITE,CASEID,ROUTE,STATUS,MAIN_TIP_UZ,0,0,ROOT_TORQUE,MAXSEQV,NOTE
(A32,',',A32,',',A12,',',E16.8,',',E16.8,',',E16.8,',',E16.8,',',E16.8,',',A64)
*CFCLOS
FINISH
