% WO-006R8 Basic cambered-airfoil BL benchmark.
% This is diagnostic route evidence, not Baseline A completion.
SOLVER= INC_RANS
KIND_TURB_MODEL= SA
MATH_PROBLEM= DIRECT
RESTART_SOL= NO
SYSTEM_MEASUREMENTS= SI
INC_NONDIM= INITIAL_VALUES
INC_DENSITY_MODEL= CONSTANT
INC_DENSITY_INIT= 1.225000
INC_VELOCITY_INIT= ( 6.484166, 0.453417, 0.000000 )
INC_TEMPERATURE_INIT= 288.150000
VISCOSITY_MODEL= CONSTANT_VISCOSITY
MU_CONSTANT= 1.789400e-05
FREESTREAM_NU_FACTOR= 3.0
AOA= 4.000000
SIDESLIP_ANGLE= 0.000000
REF_ORIGIN_MOMENT_X= 0.282547
REF_ORIGIN_MOMENT_Y= 0.000000
REF_ORIGIN_MOMENT_Z= 0.000000
REF_LENGTH= 1.130190
REF_AREA= 1.130190
MARKER_HEATFLUX= ( airfoil, 0.0 )
MARKER_FAR= ( farfield )
MARKER_PLOTTING= ( airfoil )
MARKER_MONITORING= ( airfoil )
NUM_METHOD_GRAD= GREEN_GAUSS
CFL_NUMBER= 5.0
CFL_ADAPT= NO
MAX_DELTA_TIME= 1E6
CONV_NUM_METHOD_FLOW= FDS
MUSCL_FLOW= YES
SLOPE_LIMITER_FLOW= NONE
JST_SENSOR_COEFF= ( 0.0, 0.02 )
TIME_DISCRE_FLOW= EULER_IMPLICIT
CONV_NUM_METHOD_TURB= SCALAR_UPWIND
MUSCL_TURB= NO
SLOPE_LIMITER_TURB= VENKATAKRISHNAN
TIME_DISCRE_TURB= EULER_IMPLICIT
LINEAR_SOLVER= FGMRES
LINEAR_SOLVER_PREC= ILU
LINEAR_SOLVER_ERROR= 1E-8
LINEAR_SOLVER_ITER= 10
ITER= 2000
CONV_FIELD= DRAG
CONV_RESIDUAL_MINVAL= -9
CONV_STARTITER= 10
CONV_CAUCHY_ELEMS= 100
CONV_CAUCHY_EPS= 1E-6
MESH_FILENAME= mesh.su2
MESH_FORMAT= SU2
TABULAR_FORMAT= CSV
CONV_FILENAME= history
RESTART_FILENAME= restart_flow
VOLUME_FILENAME= flow
SURFACE_FILENAME= surface_flow
SCREEN_OUTPUT= (INNER_ITER, WALL_TIME, RMS_PRESSURE, RMS_NU_TILDE, LIFT, DRAG)
HISTORY_OUTPUT= (ITER, RMS_RES, AERO_COEFF)
OUTPUT_FILES= (RESTART_ASCII, SURFACE_CSV)
