$ HPA-MDO: Auto-generated NASTRAN Bulk Data
BEGIN BULK
MAT1,1,2.3000e+11,9.0551e+10,0.27,1600.0
GRID,1,,0.0,0.000000,0.0
GRID,2,,0.0,0.279661,0.0
GRID,3,,0.0,0.559322,0.0
GRID,4,,0.0,0.838983,0.0
GRID,5,,0.0,1.118644,0.0
GRID,6,,0.0,1.398305,0.0
GRID,7,,0.0,1.677966,0.0
GRID,8,,0.0,1.957627,0.0
GRID,9,,0.0,2.237288,0.0
GRID,10,,0.0,2.516949,0.0
GRID,11,,0.0,2.796610,0.0
GRID,12,,0.0,3.076271,0.0
GRID,13,,0.0,3.355932,0.0
GRID,14,,0.0,3.635593,0.0
GRID,15,,0.0,3.915254,0.0
GRID,16,,0.0,4.194915,0.0
GRID,17,,0.0,4.474576,0.0
GRID,18,,0.0,4.754237,0.0
GRID,19,,0.0,5.033898,0.0
GRID,20,,0.0,5.313559,0.0
$ ... 40 like lines cut
PBARL,1,1,,TUBE
,0.052748,0.002222
CBAR,1,1,1,2,0.0,0.0,1.0
PBARL,2,1,,TUBE
,0.052531,0.002432
CBAR,2,2,2,3,0.0,0.0,1.0
PBARL,3,1,,TUBE
,0.052306,0.002635
CBAR,3,3,3,4,0.0,0.0,1.0
PBARL,4,1,,TUBE
,0.052074,0.002830
CBAR,4,4,4,5,0.0,0.0,1.0
PBARL,5,1,,TUBE
,0.051835,0.003018
CBAR,5,5,5,6,0.0,0.0,1.0
PBARL,6,1,,TUBE
,0.051588,0.003199
CBAR,6,6,6,7,0.0,0.0,1.0
PBARL,7,1,,TUBE
,0.051334,0.003372
CBAR,7,7,7,8,0.0,0.0,1.0
PBARL,8,1,,TUBE
,0.051072,0.003538
CBAR,8,8,8,9,0.0,0.0,1.0
PBARL,9,1,,TUBE
,0.050803,0.003696
CBAR,9,9,9,10,0.0,0.0,1.0
PBARL,10,1,,TUBE
,0.050526,0.003847
CBAR,10,10,10,11,0.0,0.0,1.0
PBARL,11,1,,TUBE
,0.050241,0.003990
CBAR,11,11,11,12,0.0,0.0,1.0
PBARL,12,1,,TUBE
,0.049949,0.004125
CBAR,12,12,12,13,0.0,0.0,1.0
PBARL,13,1,,TUBE
,0.049649,0.004252
CBAR,13,13,13,14,0.0,0.0,1.0
PBARL,14,1,,TUBE
,0.049341,0.004372
CBAR,14,14,14,15,0.0,0.0,1.0
PBARL,15,1,,TUBE
,0.049026,0.004484
CBAR,15,15,15,16,0.0,0.0,1.0
PBARL,16,1,,TUBE
,0.048702,0.004588
CBAR,16,16,16,17,0.0,0.0,1.0
PBARL,17,1,,TUBE
,0.048371,0.004684
CBAR,17,17,17,18,0.0,0.0,1.0
PBARL,18,1,,TUBE
,0.048031,0.004772
CBAR,18,18,18,19,0.0,0.0,1.0
PBARL,19,1,,TUBE
,0.047684,0.004852
CBAR,19,19,19,20,0.0,0.0,1.0
PBARL,20,1,,TUBE
,0.047328,0.004924
CBAR,20,20,20,21,0.0,0.0,1.0
$ ... 117 like lines cut
SPC1,1,123456,1
FORCE,1,1,,13.853924,0.0,0.0,1.0
FORCE,1,2,,27.423172,0.0,0.0,1.0
FORCE,1,3,,27.150319,0.0,0.0,1.0
FORCE,1,4,,26.884152,0.0,0.0,1.0
FORCE,1,5,,26.627005,0.0,0.0,1.0
FORCE,1,6,,26.379086,0.0,0.0,1.0
FORCE,1,7,,26.140594,0.0,0.0,1.0
FORCE,1,8,,25.911729,0.0,0.0,1.0
FORCE,1,9,,25.692683,0.0,0.0,1.0
FORCE,1,10,,25.483496,0.0,0.0,1.0
FORCE,1,11,,25.283484,0.0,0.0,1.0
FORCE,1,12,,25.091738,0.0,0.0,1.0
FORCE,1,13,,24.907310,0.0,0.0,1.0
FORCE,1,14,,24.729251,0.0,0.0,1.0
FORCE,1,15,,24.556715,0.0,0.0,1.0
FORCE,1,16,,24.388526,0.0,0.0,1.0
FORCE,1,17,,24.214826,0.0,0.0,1.0
FORCE,1,18,,24.017312,0.0,0.0,1.0
FORCE,1,19,,23.780564,0.0,0.0,1.0
FORCE,1,20,,23.513354,0.0,0.0,1.0
$ ... 40 like lines cut
ENDDATA
