! ============================================================
! HPA-MDO: Auto-generated ANSYS APDL input
! Material: High-Modulus Carbon Fiber (unidirectional)
! Spar nodes: 60
! ============================================================
/PREP7

! --- Material properties ---
MP,EX,1,2.300000e+11    ! Young's modulus [Pa]
MP,DENS,1,1600.0    ! Density [kg/m³]
MP,PRXY,1,0.270    ! Poisson ratio

! --- Element type: BEAM188 (Timoshenko beam) ---
ET,1,BEAM188
KEYOPT,1,1,0    ! Warping DOF excluded
KEYOPT,1,3,2    ! Cubic shape functions

! --- Keypoints (nodes along half-span) ---
K,1, 0.0, 0.000000, 0.0
K,2, 0.0, 0.279661, 0.0
K,3, 0.0, 0.559322, 0.0
K,4, 0.0, 0.838983, 0.0
K,5, 0.0, 1.118644, 0.0
K,6, 0.0, 1.398305, 0.0
K,7, 0.0, 1.677966, 0.0
K,8, 0.0, 1.957627, 0.0
K,9, 0.0, 2.237288, 0.0
K,10, 0.0, 2.516949, 0.0
K,11, 0.0, 2.796610, 0.0
K,12, 0.0, 3.076271, 0.0
K,13, 0.0, 3.355932, 0.0
K,14, 0.0, 3.635593, 0.0
K,15, 0.0, 3.915254, 0.0
K,16, 0.0, 4.194915, 0.0
K,17, 0.0, 4.474576, 0.0
K,18, 0.0, 4.754237, 0.0
K,19, 0.0, 5.033898, 0.0
K,20, 0.0, 5.313559, 0.0
! ... 40 like lines cut

! --- Lines connecting keypoints ---
L,1,2
L,2,3
L,3,4
L,4,5
L,5,6
L,6,7
L,7,8
L,8,9
L,9,10
L,10,11
L,11,12
L,12,13
L,13,14
L,14,15
L,15,16
L,16,17
L,17,18
L,18,19
L,19,20
L,20,21
! ... 39 like lines cut

! --- Cross-sections (hollow circular tube) ---
SECTYPE,1,BEAM,CTUBE
SECDATA,0.050526,0.052748
SECTYPE,2,BEAM,CTUBE
SECDATA,0.050099,0.052531
SECTYPE,3,BEAM,CTUBE
SECDATA,0.049671,0.052306
SECTYPE,4,BEAM,CTUBE
SECDATA,0.049244,0.052074
SECTYPE,5,BEAM,CTUBE
SECDATA,0.048816,0.051835
SECTYPE,6,BEAM,CTUBE
SECDATA,0.048389,0.051588
SECTYPE,7,BEAM,CTUBE
SECDATA,0.047961,0.051334
SECTYPE,8,BEAM,CTUBE
SECDATA,0.047534,0.051072
SECTYPE,9,BEAM,CTUBE
SECDATA,0.047107,0.050803
SECTYPE,10,BEAM,CTUBE
SECDATA,0.046679,0.050526
SECTYPE,11,BEAM,CTUBE
SECDATA,0.046252,0.050241
SECTYPE,12,BEAM,CTUBE
SECDATA,0.045824,0.049949
SECTYPE,13,BEAM,CTUBE
SECDATA,0.045397,0.049649
SECTYPE,14,BEAM,CTUBE
SECDATA,0.044969,0.049341
SECTYPE,15,BEAM,CTUBE
SECDATA,0.044542,0.049026
SECTYPE,16,BEAM,CTUBE
SECDATA,0.044114,0.048702
SECTYPE,17,BEAM,CTUBE
SECDATA,0.043687,0.048371
SECTYPE,18,BEAM,CTUBE
SECDATA,0.043259,0.048031
SECTYPE,19,BEAM,CTUBE
SECDATA,0.042832,0.047684
SECTYPE,20,BEAM,CTUBE
SECDATA,0.042405,0.047328
! ... 78 like lines cut

! --- Mesh: one element per line segment ---
MAT,1
LSEL,S,LINE,,1
LATT,1,,1,,,,1    ! MAT=1, TYPE=1, SECNUM=1
LESIZE,ALL,,,1
LMESH,ALL
LSEL,S,LINE,,2
LATT,1,,1,,,,2    ! MAT=1, TYPE=1, SECNUM=2
LESIZE,ALL,,,1
LMESH,ALL
LSEL,S,LINE,,3
LATT,1,,1,,,,3    ! MAT=1, TYPE=1, SECNUM=3
LESIZE,ALL,,,1
LMESH,ALL
LSEL,S,LINE,,4
LATT,1,,1,,,,4    ! MAT=1, TYPE=1, SECNUM=4
LESIZE,ALL,,,1
LMESH,ALL
LSEL,S,LINE,,5
LATT,1,,1,,,,5    ! MAT=1, TYPE=1, SECNUM=5
LESIZE,ALL,,,1
LMESH,ALL
LSEL,S,LINE,,6
LATT,1,,1,,,,6    ! MAT=1, TYPE=1, SECNUM=6
LESIZE,ALL,,,1
LMESH,ALL
LSEL,S,LINE,,7
LATT,1,,1,,,,7    ! MAT=1, TYPE=1, SECNUM=7
LESIZE,ALL,,,1
LMESH,ALL
LSEL,S,LINE,,8
LATT,1,,1,,,,8    ! MAT=1, TYPE=1, SECNUM=8
LESIZE,ALL,,,1
LMESH,ALL
LSEL,S,LINE,,9
LATT,1,,1,,,,9    ! MAT=1, TYPE=1, SECNUM=9
LESIZE,ALL,,,1
LMESH,ALL
LSEL,S,LINE,,10
LATT,1,,1,,,,10    ! MAT=1, TYPE=1, SECNUM=10
LESIZE,ALL,,,1
LMESH,ALL
LSEL,S,LINE,,11
LATT,1,,1,,,,11    ! MAT=1, TYPE=1, SECNUM=11
LESIZE,ALL,,,1
LMESH,ALL
LSEL,S,LINE,,12
LATT,1,,1,,,,12    ! MAT=1, TYPE=1, SECNUM=12
LESIZE,ALL,,,1
LMESH,ALL
LSEL,S,LINE,,13
LATT,1,,1,,,,13    ! MAT=1, TYPE=1, SECNUM=13
LESIZE,ALL,,,1
LMESH,ALL
LSEL,S,LINE,,14
LATT,1,,1,,,,14    ! MAT=1, TYPE=1, SECNUM=14
LESIZE,ALL,,,1
LMESH,ALL
LSEL,S,LINE,,15
LATT,1,,1,,,,15    ! MAT=1, TYPE=1, SECNUM=15
LESIZE,ALL,,,1
LMESH,ALL
LSEL,S,LINE,,16
LATT,1,,1,,,,16    ! MAT=1, TYPE=1, SECNUM=16
LESIZE,ALL,,,1
LMESH,ALL
LSEL,S,LINE,,17
LATT,1,,1,,,,17    ! MAT=1, TYPE=1, SECNUM=17
LESIZE,ALL,,,1
LMESH,ALL
LSEL,S,LINE,,18
LATT,1,,1,,,,18    ! MAT=1, TYPE=1, SECNUM=18
LESIZE,ALL,,,1
LMESH,ALL
LSEL,S,LINE,,19
LATT,1,,1,,,,19    ! MAT=1, TYPE=1, SECNUM=19
LESIZE,ALL,,,1
LMESH,ALL
LSEL,S,LINE,,20
LATT,1,,1,,,,20    ! MAT=1, TYPE=1, SECNUM=20
LESIZE,ALL,,,1
LMESH,ALL
LSEL,S,LINE,,21
LATT,1,,1,,,,21    ! MAT=1, TYPE=1, SECNUM=21
LESIZE,ALL,,,1
LMESH,ALL
LSEL,S,LINE,,22
LATT,1,,1,,,,22    ! MAT=1, TYPE=1, SECNUM=22
LESIZE,ALL,,,1
LMESH,ALL
LSEL,S,LINE,,23
LATT,1,,1,,,,23    ! MAT=1, TYPE=1, SECNUM=23
LESIZE,ALL,,,1
LMESH,ALL
LSEL,S,LINE,,24
LATT,1,,1,,,,24    ! MAT=1, TYPE=1, SECNUM=24
LESIZE,ALL,,,1
LMESH,ALL
LSEL,S,LINE,,25
LATT,1,,1,,,,25    ! MAT=1, TYPE=1, SECNUM=25
LESIZE,ALL,,,1
LMESH,ALL
LSEL,S,LINE,,26
LATT,1,,1,,,,26    ! MAT=1, TYPE=1, SECNUM=26
LESIZE,ALL,,,1
LMESH,ALL
LSEL,S,LINE,,27
LATT,1,,1,,,,27    ! MAT=1, TYPE=1, SECNUM=27
LESIZE,ALL,,,1
LMESH,ALL
LSEL,S,LINE,,28
LATT,1,,1,,,,28    ! MAT=1, TYPE=1, SECNUM=28
LESIZE,ALL,,,1
LMESH,ALL
LSEL,S,LINE,,29
LATT,1,,1,,,,29    ! MAT=1, TYPE=1, SECNUM=29
LESIZE,ALL,,,1
LMESH,ALL
LSEL,S,LINE,,30
LATT,1,,1,,,,30    ! MAT=1, TYPE=1, SECNUM=30
LESIZE,ALL,,,1
LMESH,ALL
LSEL,S,LINE,,31
LATT,1,,1,,,,31    ! MAT=1, TYPE=1, SECNUM=31
LESIZE,ALL,,,1
LMESH,ALL
LSEL,S,LINE,,32
LATT,1,,1,,,,32    ! MAT=1, TYPE=1, SECNUM=32
LESIZE,ALL,,,1
LMESH,ALL
LSEL,S,LINE,,33
LATT,1,,1,,,,33    ! MAT=1, TYPE=1, SECNUM=33
LESIZE,ALL,,,1
LMESH,ALL
LSEL,S,LINE,,34
LATT,1,,1,,,,34    ! MAT=1, TYPE=1, SECNUM=34
LESIZE,ALL,,,1
LMESH,ALL
LSEL,S,LINE,,35
LATT,1,,1,,,,35    ! MAT=1, TYPE=1, SECNUM=35
LESIZE,ALL,,,1
LMESH,ALL
LSEL,S,LINE,,36
LATT,1,,1,,,,36    ! MAT=1, TYPE=1, SECNUM=36
LESIZE,ALL,,,1
LMESH,ALL
LSEL,S,LINE,,37
LATT,1,,1,,,,37    ! MAT=1, TYPE=1, SECNUM=37
LESIZE,ALL,,,1
LMESH,ALL
LSEL,S,LINE,,38
LATT,1,,1,,,,38    ! MAT=1, TYPE=1, SECNUM=38
LESIZE,ALL,,,1
LMESH,ALL
LSEL,S,LINE,,39
LATT,1,,1,,,,39    ! MAT=1, TYPE=1, SECNUM=39
LESIZE,ALL,,,1
LMESH,ALL
LSEL,S,LINE,,40
LATT,1,,1,,,,40    ! MAT=1, TYPE=1, SECNUM=40
LESIZE,ALL,,,1
LMESH,ALL
LSEL,S,LINE,,41
LATT,1,,1,,,,41    ! MAT=1, TYPE=1, SECNUM=41
LESIZE,ALL,,,1
LMESH,ALL
LSEL,S,LINE,,42
LATT,1,,1,,,,42    ! MAT=1, TYPE=1, SECNUM=42
LESIZE,ALL,,,1
LMESH,ALL
LSEL,S,LINE,,43
LATT,1,,1,,,,43    ! MAT=1, TYPE=1, SECNUM=43
LESIZE,ALL,,,1
LMESH,ALL
LSEL,S,LINE,,44
LATT,1,,1,,,,44    ! MAT=1, TYPE=1, SECNUM=44
LESIZE,ALL,,,1
LMESH,ALL
LSEL,S,LINE,,45
LATT,1,,1,,,,45    ! MAT=1, TYPE=1, SECNUM=45
LESIZE,ALL,,,1
LMESH,ALL
LSEL,S,LINE,,46
LATT,1,,1,,,,46    ! MAT=1, TYPE=1, SECNUM=46
LESIZE,ALL,,,1
LMESH,ALL
LSEL,S,LINE,,47
LATT,1,,1,,,,47    ! MAT=1, TYPE=1, SECNUM=47
LESIZE,ALL,,,1
LMESH,ALL
LSEL,S,LINE,,48
LATT,1,,1,,,,48    ! MAT=1, TYPE=1, SECNUM=48
LESIZE,ALL,,,1
LMESH,ALL
LSEL,S,LINE,,49
LATT,1,,1,,,,49    ! MAT=1, TYPE=1, SECNUM=49
LESIZE,ALL,,,1
LMESH,ALL
LSEL,S,LINE,,50
LATT,1,,1,,,,50    ! MAT=1, TYPE=1, SECNUM=50
LESIZE,ALL,,,1
LMESH,ALL
LSEL,S,LINE,,51
LATT,1,,1,,,,51    ! MAT=1, TYPE=1, SECNUM=51
LESIZE,ALL,,,1
LMESH,ALL
LSEL,S,LINE,,52
LATT,1,,1,,,,52    ! MAT=1, TYPE=1, SECNUM=52
LESIZE,ALL,,,1
LMESH,ALL
LSEL,S,LINE,,53
LATT,1,,1,,,,53    ! MAT=1, TYPE=1, SECNUM=53
LESIZE,ALL,,,1
LMESH,ALL
LSEL,S,LINE,,54
LATT,1,,1,,,,54    ! MAT=1, TYPE=1, SECNUM=54
LESIZE,ALL,,,1
LMESH,ALL
LSEL,S,LINE,,55
LATT,1,,1,,,,55    ! MAT=1, TYPE=1, SECNUM=55
LESIZE,ALL,,,1
LMESH,ALL
LSEL,S,LINE,,56
LATT,1,,1,,,,56    ! MAT=1, TYPE=1, SECNUM=56
LESIZE,ALL,,,1
LMESH,ALL
LSEL,S,LINE,,57
LATT,1,,1,,,,57    ! MAT=1, TYPE=1, SECNUM=57
LESIZE,ALL,,,1
LMESH,ALL
LSEL,S,LINE,,58
LATT,1,,1,,,,58    ! MAT=1, TYPE=1, SECNUM=58
LESIZE,ALL,,,1
LMESH,ALL
LSEL,S,LINE,,59
LATT,1,,1,,,,59    ! MAT=1, TYPE=1, SECNUM=59
LESIZE,ALL,,,1
LMESH,ALL
ALLSEL,ALL

! --- Boundary conditions: fixed root ---
DK,1,ALL,0    ! Fix all DOF at root keypoint

! --- Applied loads (distributed force → nodal forces) ---
! Converting distributed load to equivalent nodal forces
FK,1,FZ,13.853924    ! Node 1, y=0.000m
FK,2,FZ,27.423172    ! Node 2, y=0.280m
FK,3,FZ,27.150319    ! Node 3, y=0.559m
FK,4,FZ,26.884152    ! Node 4, y=0.839m
FK,5,FZ,26.627005    ! Node 5, y=1.119m
FK,6,FZ,26.379086    ! Node 6, y=1.398m
FK,7,FZ,26.140594    ! Node 7, y=1.678m
FK,8,FZ,25.911729    ! Node 8, y=1.958m
FK,9,FZ,25.692683    ! Node 9, y=2.237m
FK,10,FZ,25.483496    ! Node 10, y=2.517m
FK,11,FZ,25.283484    ! Node 11, y=2.797m
FK,12,FZ,25.091738    ! Node 12, y=3.076m
FK,13,FZ,24.907310    ! Node 13, y=3.356m
FK,14,FZ,24.729251    ! Node 14, y=3.636m
FK,15,FZ,24.556715    ! Node 15, y=3.915m
FK,16,FZ,24.388526    ! Node 16, y=4.195m
FK,17,FZ,24.214826    ! Node 17, y=4.475m
FK,18,FZ,24.017312    ! Node 18, y=4.754m
FK,19,FZ,23.780564    ! Node 19, y=5.034m
FK,20,FZ,23.513354    ! Node 20, y=5.314m
! ... 40 like lines cut

! --- Solution ---
FINISH
/SOLU
ANTYPE,STATIC
SOLVE
FINISH

! --- Post-processing ---
/POST1
SET,LAST
PLNSOL,U,Z    ! Plot Z-deflection
PRESOL,SMISC  ! List beam element results
FINISH
