! ============================================================
! Phase 14 B2 tapered tube truth deck
! Purpose: independent ANSYS APDL BEAM188/CTUBE comparison deck
! Geometry/load convention matches the Mac-local CalculiX benchmark
! ============================================================
/PREP7

! --- Material ---
MP,EX,1,2.300000000e+11
MP,PRXY,1,0.27
MP,DENS,1,1600

! --- Element type ---
ET,1,BEAM188
KEYOPT,1,1,0
KEYOPT,1,3,2

! --- Keypoints ---
K,1,0.0,0,0.0
K,2,0.0,0.5,0.0
K,3,0.0,1,0.0
K,4,0.0,1.5,0.0
K,5,0.0,2,0.0
K,6,0.0,2.5,0.0
K,7,0.0,3,0.0
K,8,0.0,3.5,0.0
K,9,0.0,4,0.0
K,10,0.0,4.5,0.0
K,11,0.0,5,0.0
K,12,0.0,5.5,0.0
K,13,0.0,6,0.0
K,14,0.0,6.5,0.0
K,15,0.0,7,0.0
K,16,0.0,7.5,0.0
K,17,0.0,8,0.0
K,18,0.0,8.5,0.0
K,19,0.0,9,0.0
K,20,0.0,9.5,0.0
K,21,0.0,10,0.0

! --- Lines ---
L,1,2
L,2,3
L,3,4
L,4,5
L,5,6
L,6,7
L,7,8
L,8,9
L,9,10
L,10,11
L,11,12
L,12,13
L,13,14
L,14,15
L,15,16
L,16,17
L,17,18
L,18,19
L,19,20
L,20,21

! --- Elementwise CTUBE sections + mesh ---
SECTYPE,1,BEAM,CTUBE
SECDATA,3.820000000e-02,4.000000000e-02
LSEL,S,LINE,,1
LATT,1,,1,,,,1
LESIZE,ALL,,,1
LMESH,ALL
SECTYPE,2,BEAM,CTUBE
SECDATA,3.744210526e-02,3.921052632e-02
LSEL,S,LINE,,2
LATT,1,,1,,,,2
LESIZE,ALL,,,1
LMESH,ALL
SECTYPE,3,BEAM,CTUBE
SECDATA,3.668421053e-02,3.842105263e-02
LSEL,S,LINE,,3
LATT,1,,1,,,,3
LESIZE,ALL,,,1
LMESH,ALL
SECTYPE,4,BEAM,CTUBE
SECDATA,3.592631579e-02,3.763157895e-02
LSEL,S,LINE,,4
LATT,1,,1,,,,4
LESIZE,ALL,,,1
LMESH,ALL
SECTYPE,5,BEAM,CTUBE
SECDATA,3.516842105e-02,3.684210526e-02
LSEL,S,LINE,,5
LATT,1,,1,,,,5
LESIZE,ALL,,,1
LMESH,ALL
SECTYPE,6,BEAM,CTUBE
SECDATA,3.441052632e-02,3.605263158e-02
LSEL,S,LINE,,6
LATT,1,,1,,,,6
LESIZE,ALL,,,1
LMESH,ALL
SECTYPE,7,BEAM,CTUBE
SECDATA,3.365263158e-02,3.526315789e-02
LSEL,S,LINE,,7
LATT,1,,1,,,,7
LESIZE,ALL,,,1
LMESH,ALL
SECTYPE,8,BEAM,CTUBE
SECDATA,3.289473684e-02,3.447368421e-02
LSEL,S,LINE,,8
LATT,1,,1,,,,8
LESIZE,ALL,,,1
LMESH,ALL
SECTYPE,9,BEAM,CTUBE
SECDATA,3.213684211e-02,3.368421053e-02
LSEL,S,LINE,,9
LATT,1,,1,,,,9
LESIZE,ALL,,,1
LMESH,ALL
SECTYPE,10,BEAM,CTUBE
SECDATA,3.137894737e-02,3.289473684e-02
LSEL,S,LINE,,10
LATT,1,,1,,,,10
LESIZE,ALL,,,1
LMESH,ALL
SECTYPE,11,BEAM,CTUBE
SECDATA,3.062105263e-02,3.210526316e-02
LSEL,S,LINE,,11
LATT,1,,1,,,,11
LESIZE,ALL,,,1
LMESH,ALL
SECTYPE,12,BEAM,CTUBE
SECDATA,2.986315789e-02,3.131578947e-02
LSEL,S,LINE,,12
LATT,1,,1,,,,12
LESIZE,ALL,,,1
LMESH,ALL
SECTYPE,13,BEAM,CTUBE
SECDATA,2.910526316e-02,3.052631579e-02
LSEL,S,LINE,,13
LATT,1,,1,,,,13
LESIZE,ALL,,,1
LMESH,ALL
SECTYPE,14,BEAM,CTUBE
SECDATA,2.834736842e-02,2.973684211e-02
LSEL,S,LINE,,14
LATT,1,,1,,,,14
LESIZE,ALL,,,1
LMESH,ALL
SECTYPE,15,BEAM,CTUBE
SECDATA,2.758947368e-02,2.894736842e-02
LSEL,S,LINE,,15
LATT,1,,1,,,,15
LESIZE,ALL,,,1
LMESH,ALL
SECTYPE,16,BEAM,CTUBE
SECDATA,2.683157895e-02,2.815789474e-02
LSEL,S,LINE,,16
LATT,1,,1,,,,16
LESIZE,ALL,,,1
LMESH,ALL
SECTYPE,17,BEAM,CTUBE
SECDATA,2.607368421e-02,2.736842105e-02
LSEL,S,LINE,,17
LATT,1,,1,,,,17
LESIZE,ALL,,,1
LMESH,ALL
SECTYPE,18,BEAM,CTUBE
SECDATA,2.531578947e-02,2.657894737e-02
LSEL,S,LINE,,18
LATT,1,,1,,,,18
LESIZE,ALL,,,1
LMESH,ALL
SECTYPE,19,BEAM,CTUBE
SECDATA,2.455789474e-02,2.578947368e-02
LSEL,S,LINE,,19
LATT,1,,1,,,,19
LESIZE,ALL,,,1
LMESH,ALL
SECTYPE,20,BEAM,CTUBE
SECDATA,2.380000000e-02,2.500000000e-02
LSEL,S,LINE,,20
LATT,1,,1,,,,20
LESIZE,ALL,,,1
LMESH,ALL
ALLSEL,ALL

! --- Boundary conditions ---
DK,1,ALL,0

! --- Loads ---
FK,1,FZ,-2.000000000e+00
FK,2,FZ,-4.000000000e+00
FK,3,FZ,-4.000000000e+00
FK,4,FZ,-4.000000000e+00
FK,5,FZ,-4.000000000e+00
FK,6,FZ,-4.000000000e+00
FK,7,FZ,-4.000000000e+00
FK,8,FZ,-4.000000000e+00
FK,9,FZ,-4.000000000e+00
FK,10,FZ,-4.000000000e+00
FK,11,FZ,-4.000000000e+00
FK,12,FZ,-4.000000000e+00
FK,13,FZ,-4.000000000e+00
FK,14,FZ,-4.000000000e+00
FK,15,FZ,-4.000000000e+00
FK,16,FZ,-4.000000000e+00
FK,17,FZ,-4.000000000e+00
FK,18,FZ,-4.000000000e+00
FK,19,FZ,-4.000000000e+00
FK,20,FZ,-4.000000000e+00
FK,21,FZ,-2.000000000e+00

! --- Solve ---
FINISH
/SOLU
ANTYPE,STATIC
SOLVE
FINISH

! --- Post ---
/POST1
SET,LAST
*GET,TIP_UZ,NODE,21,U,Z
PRRSOL,FZ
/OUTPUT,b2_tapered_tube_post,txt
*VWRITE,TIP_UZ
('TIP_UZ=',E16.8)
/OUTPUT
FINISH
