! ============================================================
! Phase 14 B5 truth deck: b5_front_rear_vertical_couple
! Purpose: parity-style ANSYS APDL dual-beam truth deck
! Beam-link/wire/load ownership matches the Mac-local CalculiX benchmark
! ============================================================
/PREP7

! --- Materials ---
MP,EX,1,2.300000000e+11
MP,PRXY,1,0.27
MP,DENS,1,1600
MP,EX,2,2.300000000e+11
MP,PRXY,2,0.27
MP,DENS,2,1600

! --- Element types ---
ET,1,BEAM188
KEYOPT,1,1,0
KEYOPT,1,3,2
ET,2,BEAM188
KEYOPT,2,1,0
KEYOPT,2,3,2

! --- Main keypoints ---
K,1,0,0,0
K,2,0,0.833333333,0
K,3,0,1.66666667,0
K,4,0,2.5,0
K,5,0,3.33333333,0
K,6,0,4.16666667,0
K,7,0,5,0
K,8,0,5.83333333,0
K,9,0,6.66666667,0
K,10,0,7.5,0
K,11,0,8.33333333,0
K,12,0,9.16666667,0
K,13,0,10,0

! --- Rear keypoints ---
K,14,0.35,0,0
K,15,0.35,0.833333333,0
K,16,0.35,1.66666667,0
K,17,0.35,2.5,0
K,18,0.35,3.33333333,0
K,19,0.35,4.16666667,0
K,20,0.35,5,0
K,21,0.35,5.83333333,0
K,22,0.35,6.66666667,0
K,23,0.35,7.5,0
K,24,0.35,8.33333333,0
K,25,0.35,9.16666667,0
K,26,0.35,10,0

! --- Main lines ---
L,1,2
L,2,3
L,3,4
L,4,5
L,5,6
L,6,7
L,7,8
L,8,9
L,9,10
L,10,11
L,11,12
L,12,13

! --- Rear lines ---
L,14,15
L,15,16
L,16,17
L,17,18
L,18,19
L,19,20
L,20,21
L,21,22
L,22,23
L,23,24
L,24,25
L,25,26

! --- Main sections + mesh ---
SECTYPE,1,BEAM,CTUBE
SECDATA,3.320000000e-02,3.500000000e-02
LSEL,S,LINE,,1
LATT,1,,1,,,,1
LESIZE,ALL,,,1
LMESH,ALL
SECTYPE,2,BEAM,CTUBE
SECDATA,3.320000000e-02,3.500000000e-02
LSEL,S,LINE,,2
LATT,1,,1,,,,2
LESIZE,ALL,,,1
LMESH,ALL
SECTYPE,3,BEAM,CTUBE
SECDATA,3.320000000e-02,3.500000000e-02
LSEL,S,LINE,,3
LATT,1,,1,,,,3
LESIZE,ALL,,,1
LMESH,ALL
SECTYPE,4,BEAM,CTUBE
SECDATA,3.320000000e-02,3.500000000e-02
LSEL,S,LINE,,4
LATT,1,,1,,,,4
LESIZE,ALL,,,1
LMESH,ALL
SECTYPE,5,BEAM,CTUBE
SECDATA,3.320000000e-02,3.500000000e-02
LSEL,S,LINE,,5
LATT,1,,1,,,,5
LESIZE,ALL,,,1
LMESH,ALL
SECTYPE,6,BEAM,CTUBE
SECDATA,3.320000000e-02,3.500000000e-02
LSEL,S,LINE,,6
LATT,1,,1,,,,6
LESIZE,ALL,,,1
LMESH,ALL
SECTYPE,7,BEAM,CTUBE
SECDATA,3.320000000e-02,3.500000000e-02
LSEL,S,LINE,,7
LATT,1,,1,,,,7
LESIZE,ALL,,,1
LMESH,ALL
SECTYPE,8,BEAM,CTUBE
SECDATA,3.320000000e-02,3.500000000e-02
LSEL,S,LINE,,8
LATT,1,,1,,,,8
LESIZE,ALL,,,1
LMESH,ALL
SECTYPE,9,BEAM,CTUBE
SECDATA,3.320000000e-02,3.500000000e-02
LSEL,S,LINE,,9
LATT,1,,1,,,,9
LESIZE,ALL,,,1
LMESH,ALL
SECTYPE,10,BEAM,CTUBE
SECDATA,3.320000000e-02,3.500000000e-02
LSEL,S,LINE,,10
LATT,1,,1,,,,10
LESIZE,ALL,,,1
LMESH,ALL
SECTYPE,11,BEAM,CTUBE
SECDATA,3.320000000e-02,3.500000000e-02
LSEL,S,LINE,,11
LATT,1,,1,,,,11
LESIZE,ALL,,,1
LMESH,ALL
SECTYPE,12,BEAM,CTUBE
SECDATA,3.320000000e-02,3.500000000e-02
LSEL,S,LINE,,12
LATT,1,,1,,,,12
LESIZE,ALL,,,1
LMESH,ALL
ALLSEL,ALL

! --- Rear sections + mesh ---
SECTYPE,13,BEAM,CTUBE
SECDATA,2.660000000e-02,2.800000000e-02
LSEL,S,LINE,,13
LATT,2,,2,,,,13
LESIZE,ALL,,,1
LMESH,ALL
SECTYPE,14,BEAM,CTUBE
SECDATA,2.660000000e-02,2.800000000e-02
LSEL,S,LINE,,14
LATT,2,,2,,,,14
LESIZE,ALL,,,1
LMESH,ALL
SECTYPE,15,BEAM,CTUBE
SECDATA,2.660000000e-02,2.800000000e-02
LSEL,S,LINE,,15
LATT,2,,2,,,,15
LESIZE,ALL,,,1
LMESH,ALL
SECTYPE,16,BEAM,CTUBE
SECDATA,2.660000000e-02,2.800000000e-02
LSEL,S,LINE,,16
LATT,2,,2,,,,16
LESIZE,ALL,,,1
LMESH,ALL
SECTYPE,17,BEAM,CTUBE
SECDATA,2.660000000e-02,2.800000000e-02
LSEL,S,LINE,,17
LATT,2,,2,,,,17
LESIZE,ALL,,,1
LMESH,ALL
SECTYPE,18,BEAM,CTUBE
SECDATA,2.660000000e-02,2.800000000e-02
LSEL,S,LINE,,18
LATT,2,,2,,,,18
LESIZE,ALL,,,1
LMESH,ALL
SECTYPE,19,BEAM,CTUBE
SECDATA,2.660000000e-02,2.800000000e-02
LSEL,S,LINE,,19
LATT,2,,2,,,,19
LESIZE,ALL,,,1
LMESH,ALL
SECTYPE,20,BEAM,CTUBE
SECDATA,2.660000000e-02,2.800000000e-02
LSEL,S,LINE,,20
LATT,2,,2,,,,20
LESIZE,ALL,,,1
LMESH,ALL
SECTYPE,21,BEAM,CTUBE
SECDATA,2.660000000e-02,2.800000000e-02
LSEL,S,LINE,,21
LATT,2,,2,,,,21
LESIZE,ALL,,,1
LMESH,ALL
SECTYPE,22,BEAM,CTUBE
SECDATA,2.660000000e-02,2.800000000e-02
LSEL,S,LINE,,22
LATT,2,,2,,,,22
LESIZE,ALL,,,1
LMESH,ALL
SECTYPE,23,BEAM,CTUBE
SECDATA,2.660000000e-02,2.800000000e-02
LSEL,S,LINE,,23
LATT,2,,2,,,,23
LESIZE,ALL,,,1
LMESH,ALL
SECTYPE,24,BEAM,CTUBE
SECDATA,2.660000000e-02,2.800000000e-02
LSEL,S,LINE,,24
LATT,2,,2,,,,24
LESIZE,ALL,,,1
LMESH,ALL
ALLSEL,ALL

! --- Parity-style equal-DOF rib links ---
CE,NEXT,0,3,UX,1,16,UX,-1
CE,NEXT,0,3,UY,1,16,UY,-1
CE,NEXT,0,3,UZ,1,16,UZ,-1
CE,NEXT,0,3,ROTX,1,16,ROTX,-1
CE,NEXT,0,3,ROTY,1,16,ROTY,-1
CE,NEXT,0,3,ROTZ,1,16,ROTZ,-1
CE,NEXT,0,5,UX,1,18,UX,-1
CE,NEXT,0,5,UY,1,18,UY,-1
CE,NEXT,0,5,UZ,1,18,UZ,-1
CE,NEXT,0,5,ROTX,1,18,ROTX,-1
CE,NEXT,0,5,ROTY,1,18,ROTY,-1
CE,NEXT,0,5,ROTZ,1,18,ROTZ,-1
CE,NEXT,0,7,UX,1,20,UX,-1
CE,NEXT,0,7,UY,1,20,UY,-1
CE,NEXT,0,7,UZ,1,20,UZ,-1
CE,NEXT,0,7,ROTX,1,20,ROTX,-1
CE,NEXT,0,7,ROTY,1,20,ROTY,-1
CE,NEXT,0,7,ROTZ,1,20,ROTZ,-1
CE,NEXT,0,9,UX,1,22,UX,-1
CE,NEXT,0,9,UY,1,22,UY,-1
CE,NEXT,0,9,UZ,1,22,UZ,-1
CE,NEXT,0,9,ROTX,1,22,ROTX,-1
CE,NEXT,0,9,ROTY,1,22,ROTY,-1
CE,NEXT,0,9,ROTZ,1,22,ROTZ,-1
CE,NEXT,0,11,UX,1,24,UX,-1
CE,NEXT,0,11,UY,1,24,UY,-1
CE,NEXT,0,11,UZ,1,24,UZ,-1
CE,NEXT,0,11,ROTX,1,24,ROTX,-1
CE,NEXT,0,11,ROTY,1,24,ROTY,-1
CE,NEXT,0,11,ROTZ,1,24,ROTZ,-1

! --- Boundary conditions ---
DK,1,ALL,0
DK,14,ALL,0
DK,9,UZ,0

! --- Loads ---
FK,1,FZ,-2.380952381e-01
FK,2,FZ,-4.761904762e-01
FK,3,FZ,-4.761904762e-01
FK,4,FZ,-4.761904762e-01
FK,5,FZ,-4.761904762e-01
FK,6,FZ,-4.761904762e-01
FK,7,FZ,-4.761904762e-01
FK,8,FZ,-4.761904762e-01
FK,9,FZ,-4.761904762e-01
FK,10,FZ,-4.761904762e-01
FK,11,FZ,-4.761904762e-01
FK,12,FZ,-4.761904762e-01
FK,13,FZ,-2.380952381e-01
FK,14,FZ,-4.761904762e+00
FK,15,FZ,-9.523809524e+00
FK,16,FZ,-9.523809524e+00
FK,17,FZ,-9.523809524e+00
FK,18,FZ,-9.523809524e+00
FK,19,FZ,-9.523809524e+00
FK,20,FZ,-9.523809524e+00
! ... 6 like lines cut

! --- Solve ---
FINISH
/SOLU
ANTYPE,STATIC
SOLVE
FINISH

! --- Post ---
/POST1
SET,LAST
*GET,MAIN_TIP_UZ,NODE,13,U,Z
*GET,REAR_TIP_UZ,NODE,26,U,Z
PRRSOL,FZ
/OUTPUT,b5_truth_post,txt
*VWRITE,MAIN_TIP_UZ,REAR_TIP_UZ
('MAIN_TIP_UZ=',E16.8,', REAR_TIP_UZ=',E16.8)
/OUTPUT
FINISH
