% Auto-generated mesh-native SU2 smoke case.
% This smoke case proves mesh readability and marker ownership only.
% Do not interpret aerodynamic coefficients from this case.
SOLVER= INC_NAVIER_STOKES
KIND_TURB_MODEL= NONE
KIND_TRANS_MODEL= NONE
MATH_PROBLEM= DIRECT
SYSTEM_MEASUREMENTS= SI
RESTART_SOL= NO
INC_NONDIM= DIMENSIONAL
INC_DENSITY_MODEL= CONSTANT
FLUID_MODEL= INC_IDEAL_GAS
VISCOSITY_MODEL= CONSTANT_VISCOSITY
MU_CONSTANT= 1.789400e-05
INC_DENSITY_INIT= 1.225000
INC_TEMPERATURE_INIT= 288.150000
INC_VELOCITY_INIT= ( 6.500000, 0.000000, 0.000000 )
AOA= 0.000000
SIDESLIP_ANGLE= 0.000000
REF_AREA= 33.420060
REF_LENGTH= 1.003722
REF_ORIGIN_MOMENT_X= 0.246277
REF_ORIGIN_MOMENT_Y= 0.000000
REF_ORIGIN_MOMENT_Z= 0.000000
MESH_FILENAME= mesh.su2
MESH_FORMAT= SU2
MARKER_HEATFLUX= ( wing_wall, 0.0 )
MARKER_MONITORING= ( wing_wall )
MARKER_PLOTTING= ( wing_wall )
MARKER_FAR= ( farfield )
NUM_METHOD_GRAD= WEIGHTED_LEAST_SQUARES
CONV_NUM_METHOD_FLOW= JST
TIME_DISCRE_FLOW= EULER_IMPLICIT
LINEAR_SOLVER= FGMRES
LINEAR_SOLVER_PREC= ILU
LINEAR_SOLVER_ERROR= 1e-6
LINEAR_SOLVER_ITER= 20
ITER= 1000
CFL_NUMBER= 0.05
CONV_FIELD= DRAG
CONV_RESIDUAL_MINVAL= -9
CONV_STARTITER= 1
CONV_FILENAME= history
TABULAR_FORMAT= CSV
SCREEN_OUTPUT= (INNER_ITER, RMS_RES, AERO_COEFF)
HISTORY_OUTPUT= (ITER, RMS_RES, AERO_COEFF)
OUTPUT_FILES= (RESTART_ASCII, SURFACE_CSV)
CONV_CAUCHY_ELEMS= 100
CONV_CAUCHY_EPS= 1e-4
