% Canonical hybrid half-wing Phase 2 pressure-only sanity.
% Slip/Euler wall case; do not treat as viscous route-smoke.
SOLVER= INC_EULER
KIND_TURB_MODEL= NONE
MATH_PROBLEM= DIRECT
RESTART_SOL= NO
SYSTEM_MEASUREMENTS= SI
INC_NONDIM= INITIAL_VALUES
INC_DENSITY_MODEL= CONSTANT
INC_DENSITY_INIT= 1.225000
INC_TEMPERATURE_INIT= 288.150000
VISCOSITY_MODEL= CONSTANT_VISCOSITY
MU_CONSTANT= 1.789400e-05
INC_VELOCITY_INIT= ( 6.500000, 0.000000, 0.000000 )
AOA= 0.000000
SIDESLIP_ANGLE= 0.000000
REF_AREA= 16.710029799
REF_LENGTH= 1.003721543
REF_ORIGIN_MOMENT_X= 0.246276512
REF_ORIGIN_MOMENT_Y= 0.000000000
REF_ORIGIN_MOMENT_Z= 0.000000000
MESH_FILENAME= mesh.su2
MESH_FORMAT= SU2
MARKER_EULER= ( wing_upper, wing_lower, tip_wall, te_wall, closure_wall )
MARKER_SYM= ( root_symmetry )
MARKER_FAR= ( farfield )
MARKER_MONITORING= ( wing_upper, wing_lower )
MARKER_PLOTTING= ( wing_upper, wing_lower, tip_wall, te_wall, closure_wall )
NUM_METHOD_GRAD= WEIGHTED_LEAST_SQUARES
CONV_NUM_METHOD_FLOW= FDS
MUSCL_FLOW= YES
SLOPE_LIMITER_FLOW= NONE
TIME_DISCRE_FLOW= EULER_IMPLICIT
LINEAR_SOLVER= FGMRES
LINEAR_SOLVER_PREC= ILU
LINEAR_SOLVER_ERROR= 1e-6
LINEAR_SOLVER_ITER= 10
ITER= 500
CFL_NUMBER= 1.0
CONV_FIELD= DRAG
CONV_RESIDUAL_MINVAL= -9
CONV_STARTITER= 10
CONV_CAUCHY_ELEMS= 100
CONV_CAUCHY_EPS= 1e-5
CONV_FILENAME= history
TABULAR_FORMAT= CSV
SCREEN_OUTPUT= (INNER_ITER, RMS_RES, AERO_COEFF)
HISTORY_OUTPUT= (ITER, RMS_RES, AERO_COEFF)
OUTPUT_FILES= (RESTART_ASCII, SURFACE_CSV)
BREAKDOWN_FILENAME= forces_breakdown.dat
WRT_FORCES_BREAKDOWN= YES
