! Candidate APDL beam spot-check: current_avl_compromise_conservative_closed lf_1p75
! Generated from selected jig_shape_spar_data.csv
/PREP7
MP,EX,1,2.300000000e+11
MP,GXY,1,1.500000000e+10
MP,PRXY,1,0.27
MP,DENS,1,1600
MP,EX,2,2.300000000e+11
MP,GXY,2,1.500000000e+10
MP,PRXY,2,0.27
MP,DENS,2,1600
ET,1,BEAM188
KEYOPT,1,3,2
ET,2,BEAM188
KEYOPT,2,3,2
K,1,0.314193274,8.5772818e-23,0.0714391296
K,2,0.311963156,0.29094854,0.0792058358
K,3,0.309719207,0.581902533,0.0870140837
K,4,0.307470441,0.872862908,0.0948233222
K,5,0.305260659,1.16383133,0.102570082
K,6,0.303225261,1.45481063,0.110169049
K,7,0.300941398,1.74578903,0.117673807
K,8,0.298406501,2.03677,0.125280853
K,9,0.296106224,2.32775737,0.132989411
K,10,0.293988876,2.61875122,0.140777194
K,11,0.291586794,2.9097744,0.151722046
K,12,0.289138013,3.20083072,0.165253794
K,13,0.286913229,3.49190632,0.178856892
K,14,0.284655145,3.78300406,0.192396019
K,15,0.282388383,4.0741298,0.205714953
K,16,0.280349955,4.3652919,0.218636724
K,17,0.278000606,4.65648017,0.23100714
K,18,0.275298797,4.94770812,0.242764541
K,19,0.272889925,5.23898595,0.253772748
K,20,0.270655809,5.53031848,0.263875416
! ... 100 like lines cut
L,1,2
L,2,3
L,3,4
L,4,5
L,5,6
L,6,7
L,7,8
L,8,9
L,9,10
L,10,11
L,11,12
L,12,13
L,13,14
L,14,15
L,15,16
L,16,17
L,17,18
L,18,19
L,19,20
L,20,21
! ... 98 like lines cut
SECTYPE,1,BEAM,CTUBE
SECDATA,0.0341239,0.0349239
SECTYPE,2,BEAM,CTUBE
SECDATA,0.0341239,0.0349239
SECTYPE,3,BEAM,CTUBE
SECDATA,0.0341239,0.0349239
SECTYPE,4,BEAM,CTUBE
SECDATA,0.0341239,0.0349239
SECTYPE,5,BEAM,CTUBE
SECDATA,0.0341239,0.0349239
SECTYPE,6,BEAM,CTUBE
SECDATA,0.0341239,0.0349239
SECTYPE,7,BEAM,CTUBE
SECDATA,0.0341239,0.0349239
SECTYPE,8,BEAM,CTUBE
SECDATA,0.0341239,0.0349239
SECTYPE,9,BEAM,CTUBE
SECDATA,0.0341239,0.0349239
SECTYPE,10,BEAM,CTUBE
SECDATA,0.0341239,0.0349239
SECTYPE,11,BEAM,CTUBE
SECDATA,0.0341239,0.0349239
SECTYPE,12,BEAM,CTUBE
SECDATA,0.0341239,0.0349239
SECTYPE,13,BEAM,CTUBE
SECDATA,0.0341239,0.0349239
SECTYPE,14,BEAM,CTUBE
SECDATA,0.0341239,0.0349239
SECTYPE,15,BEAM,CTUBE
SECDATA,0.0341239,0.0349239
SECTYPE,16,BEAM,CTUBE
SECDATA,0.0341239,0.0349239
SECTYPE,17,BEAM,CTUBE
SECDATA,0.0341239,0.0349239
SECTYPE,18,BEAM,CTUBE
SECDATA,0.0341239,0.0349239
SECTYPE,19,BEAM,CTUBE
SECDATA,0.0341239,0.0349239
SECTYPE,20,BEAM,CTUBE
SECDATA,0.0341239,0.0349239
! ... 196 like lines cut
LSEL,S,LINE,,1
LATT,1,,1,,,,1
LESIZE,ALL,,,1
LMESH,ALL
LSEL,S,LINE,,2
LATT,1,,1,,,,2
LESIZE,ALL,,,1
LMESH,ALL
LSEL,S,LINE,,3
LATT,1,,1,,,,3
LESIZE,ALL,,,1
LMESH,ALL
LSEL,S,LINE,,4
LATT,1,,1,,,,4
LESIZE,ALL,,,1
LMESH,ALL
LSEL,S,LINE,,5
LATT,1,,1,,,,5
LESIZE,ALL,,,1
LMESH,ALL
LSEL,S,LINE,,6
LATT,1,,1,,,,6
LESIZE,ALL,,,1
LMESH,ALL
LSEL,S,LINE,,7
LATT,1,,1,,,,7
LESIZE,ALL,,,1
LMESH,ALL
LSEL,S,LINE,,8
LATT,1,,1,,,,8
LESIZE,ALL,,,1
LMESH,ALL
LSEL,S,LINE,,9
LATT,1,,1,,,,9
LESIZE,ALL,,,1
LMESH,ALL
LSEL,S,LINE,,10
LATT,1,,1,,,,10
LESIZE,ALL,,,1
LMESH,ALL
LSEL,S,LINE,,11
LATT,1,,1,,,,11
LESIZE,ALL,,,1
LMESH,ALL
LSEL,S,LINE,,12
LATT,1,,1,,,,12
LESIZE,ALL,,,1
LMESH,ALL
LSEL,S,LINE,,13
LATT,1,,1,,,,13
LESIZE,ALL,,,1
LMESH,ALL
LSEL,S,LINE,,14
LATT,1,,1,,,,14
LESIZE,ALL,,,1
LMESH,ALL
LSEL,S,LINE,,15
LATT,1,,1,,,,15
LESIZE,ALL,,,1
LMESH,ALL
LSEL,S,LINE,,16
LATT,1,,1,,,,16
LESIZE,ALL,,,1
LMESH,ALL
LSEL,S,LINE,,17
LATT,1,,1,,,,17
LESIZE,ALL,,,1
LMESH,ALL
LSEL,S,LINE,,18
LATT,1,,1,,,,18
LESIZE,ALL,,,1
LMESH,ALL
LSEL,S,LINE,,19
LATT,1,,1,,,,19
LESIZE,ALL,,,1
LMESH,ALL
LSEL,S,LINE,,20
LATT,1,,1,,,,20
LESIZE,ALL,,,1
LMESH,ALL
LSEL,S,LINE,,21
LATT,1,,1,,,,21
LESIZE,ALL,,,1
LMESH,ALL
LSEL,S,LINE,,22
LATT,1,,1,,,,22
LESIZE,ALL,,,1
LMESH,ALL
LSEL,S,LINE,,23
LATT,1,,1,,,,23
LESIZE,ALL,,,1
LMESH,ALL
LSEL,S,LINE,,24
LATT,1,,1,,,,24
LESIZE,ALL,,,1
LMESH,ALL
LSEL,S,LINE,,25
LATT,1,,1,,,,25
LESIZE,ALL,,,1
LMESH,ALL
LSEL,S,LINE,,26
LATT,1,,1,,,,26
LESIZE,ALL,,,1
LMESH,ALL
LSEL,S,LINE,,27
LATT,1,,1,,,,27
LESIZE,ALL,,,1
LMESH,ALL
LSEL,S,LINE,,28
LATT,1,,1,,,,28
LESIZE,ALL,,,1
LMESH,ALL
LSEL,S,LINE,,29
LATT,1,,1,,,,29
LESIZE,ALL,,,1
LMESH,ALL
LSEL,S,LINE,,30
LATT,1,,1,,,,30
LESIZE,ALL,,,1
LMESH,ALL
LSEL,S,LINE,,31
LATT,1,,1,,,,31
LESIZE,ALL,,,1
LMESH,ALL
LSEL,S,LINE,,32
LATT,1,,1,,,,32
LESIZE,ALL,,,1
LMESH,ALL
LSEL,S,LINE,,33
LATT,1,,1,,,,33
LESIZE,ALL,,,1
LMESH,ALL
LSEL,S,LINE,,34
LATT,1,,1,,,,34
LESIZE,ALL,,,1
LMESH,ALL
LSEL,S,LINE,,35
LATT,1,,1,,,,35
LESIZE,ALL,,,1
LMESH,ALL
LSEL,S,LINE,,36
LATT,1,,1,,,,36
LESIZE,ALL,,,1
LMESH,ALL
LSEL,S,LINE,,37
LATT,1,,1,,,,37
LESIZE,ALL,,,1
LMESH,ALL
LSEL,S,LINE,,38
LATT,1,,1,,,,38
LESIZE,ALL,,,1
LMESH,ALL
LSEL,S,LINE,,39
LATT,1,,1,,,,39
LESIZE,ALL,,,1
LMESH,ALL
LSEL,S,LINE,,40
LATT,1,,1,,,,40
LESIZE,ALL,,,1
LMESH,ALL
LSEL,S,LINE,,41
LATT,1,,1,,,,41
LESIZE,ALL,,,1
LMESH,ALL
LSEL,S,LINE,,42
LATT,1,,1,,,,42
LESIZE,ALL,,,1
LMESH,ALL
LSEL,S,LINE,,43
LATT,1,,1,,,,43
LESIZE,ALL,,,1
LMESH,ALL
LSEL,S,LINE,,44
LATT,1,,1,,,,44
LESIZE,ALL,,,1
LMESH,ALL
LSEL,S,LINE,,45
LATT,1,,1,,,,45
LESIZE,ALL,,,1
LMESH,ALL
LSEL,S,LINE,,46
LATT,1,,1,,,,46
LESIZE,ALL,,,1
LMESH,ALL
LSEL,S,LINE,,47
LATT,1,,1,,,,47
LESIZE,ALL,,,1
LMESH,ALL
LSEL,S,LINE,,48
LATT,1,,1,,,,48
LESIZE,ALL,,,1
LMESH,ALL
LSEL,S,LINE,,49
LATT,1,,1,,,,49
LESIZE,ALL,,,1
LMESH,ALL
LSEL,S,LINE,,50
LATT,1,,1,,,,50
LESIZE,ALL,,,1
LMESH,ALL
LSEL,S,LINE,,51
LATT,1,,1,,,,51
LESIZE,ALL,,,1
LMESH,ALL
LSEL,S,LINE,,52
LATT,1,,1,,,,52
LESIZE,ALL,,,1
LMESH,ALL
LSEL,S,LINE,,53
LATT,1,,1,,,,53
LESIZE,ALL,,,1
LMESH,ALL
LSEL,S,LINE,,54
LATT,1,,1,,,,54
LESIZE,ALL,,,1
LMESH,ALL
LSEL,S,LINE,,55
LATT,1,,1,,,,55
LESIZE,ALL,,,1
LMESH,ALL
LSEL,S,LINE,,56
LATT,1,,1,,,,56
LESIZE,ALL,,,1
LMESH,ALL
LSEL,S,LINE,,57
LATT,1,,1,,,,57
LESIZE,ALL,,,1
LMESH,ALL
LSEL,S,LINE,,58
LATT,1,,1,,,,58
LESIZE,ALL,,,1
LMESH,ALL
LSEL,S,LINE,,59
LATT,1,,1,,,,59
LESIZE,ALL,,,1
LMESH,ALL
LSEL,S,LINE,,60
LATT,2,,2,,,,61
LESIZE,ALL,,,1
LMESH,ALL
LSEL,S,LINE,,61
LATT,2,,2,,,,62
LESIZE,ALL,,,1
LMESH,ALL
LSEL,S,LINE,,62
LATT,2,,2,,,,63
LESIZE,ALL,,,1
LMESH,ALL
LSEL,S,LINE,,63
LATT,2,,2,,,,64
LESIZE,ALL,,,1
LMESH,ALL
LSEL,S,LINE,,64
LATT,2,,2,,,,65
LESIZE,ALL,,,1
LMESH,ALL
LSEL,S,LINE,,65
LATT,2,,2,,,,66
LESIZE,ALL,,,1
LMESH,ALL
LSEL,S,LINE,,66
LATT,2,,2,,,,67
LESIZE,ALL,,,1
LMESH,ALL
LSEL,S,LINE,,67
LATT,2,,2,,,,68
LESIZE,ALL,,,1
LMESH,ALL
LSEL,S,LINE,,68
LATT,2,,2,,,,69
LESIZE,ALL,,,1
LMESH,ALL
LSEL,S,LINE,,69
LATT,2,,2,,,,70
LESIZE,ALL,,,1
LMESH,ALL
LSEL,S,LINE,,70
LATT,2,,2,,,,71
LESIZE,ALL,,,1
LMESH,ALL
LSEL,S,LINE,,71
LATT,2,,2,,,,72
LESIZE,ALL,,,1
LMESH,ALL
LSEL,S,LINE,,72
LATT,2,,2,,,,73
LESIZE,ALL,,,1
LMESH,ALL
LSEL,S,LINE,,73
LATT,2,,2,,,,74
LESIZE,ALL,,,1
LMESH,ALL
LSEL,S,LINE,,74
LATT,2,,2,,,,75
LESIZE,ALL,,,1
LMESH,ALL
LSEL,S,LINE,,75
LATT,2,,2,,,,76
LESIZE,ALL,,,1
LMESH,ALL
LSEL,S,LINE,,76
LATT,2,,2,,,,77
LESIZE,ALL,,,1
LMESH,ALL
LSEL,S,LINE,,77
LATT,2,,2,,,,78
LESIZE,ALL,,,1
LMESH,ALL
LSEL,S,LINE,,78
LATT,2,,2,,,,79
LESIZE,ALL,,,1
LMESH,ALL
LSEL,S,LINE,,79
LATT,2,,2,,,,80
LESIZE,ALL,,,1
LMESH,ALL
LSEL,S,LINE,,80
LATT,2,,2,,,,81
LESIZE,ALL,,,1
LMESH,ALL
LSEL,S,LINE,,81
LATT,2,,2,,,,82
LESIZE,ALL,,,1
LMESH,ALL
LSEL,S,LINE,,82
LATT,2,,2,,,,83
LESIZE,ALL,,,1
LMESH,ALL
LSEL,S,LINE,,83
LATT,2,,2,,,,84
LESIZE,ALL,,,1
LMESH,ALL
LSEL,S,LINE,,84
LATT,2,,2,,,,85
LESIZE,ALL,,,1
LMESH,ALL
LSEL,S,LINE,,85
LATT,2,,2,,,,86
LESIZE,ALL,,,1
LMESH,ALL
LSEL,S,LINE,,86
LATT,2,,2,,,,87
LESIZE,ALL,,,1
LMESH,ALL
LSEL,S,LINE,,87
LATT,2,,2,,,,88
LESIZE,ALL,,,1
LMESH,ALL
LSEL,S,LINE,,88
LATT,2,,2,,,,89
LESIZE,ALL,,,1
LMESH,ALL
LSEL,S,LINE,,89
LATT,2,,2,,,,90
LESIZE,ALL,,,1
LMESH,ALL
LSEL,S,LINE,,90
LATT,2,,2,,,,91
LESIZE,ALL,,,1
LMESH,ALL
LSEL,S,LINE,,91
LATT,2,,2,,,,92
LESIZE,ALL,,,1
LMESH,ALL
LSEL,S,LINE,,92
LATT,2,,2,,,,93
LESIZE,ALL,,,1
LMESH,ALL
LSEL,S,LINE,,93
LATT,2,,2,,,,94
LESIZE,ALL,,,1
LMESH,ALL
LSEL,S,LINE,,94
LATT,2,,2,,,,95
LESIZE,ALL,,,1
LMESH,ALL
LSEL,S,LINE,,95
LATT,2,,2,,,,96
LESIZE,ALL,,,1
LMESH,ALL
LSEL,S,LINE,,96
LATT,2,,2,,,,97
LESIZE,ALL,,,1
LMESH,ALL
LSEL,S,LINE,,97
LATT,2,,2,,,,98
LESIZE,ALL,,,1
LMESH,ALL
LSEL,S,LINE,,98
LATT,2,,2,,,,99
LESIZE,ALL,,,1
LMESH,ALL
LSEL,S,LINE,,99
LATT,2,,2,,,,100
LESIZE,ALL,,,1
LMESH,ALL
LSEL,S,LINE,,100
LATT,2,,2,,,,101
LESIZE,ALL,,,1
LMESH,ALL
LSEL,S,LINE,,101
LATT,2,,2,,,,102
LESIZE,ALL,,,1
LMESH,ALL
LSEL,S,LINE,,102
LATT,2,,2,,,,103
LESIZE,ALL,,,1
LMESH,ALL
LSEL,S,LINE,,103
LATT,2,,2,,,,104
LESIZE,ALL,,,1
LMESH,ALL
LSEL,S,LINE,,104
LATT,2,,2,,,,105
LESIZE,ALL,,,1
LMESH,ALL
LSEL,S,LINE,,105
LATT,2,,2,,,,106
LESIZE,ALL,,,1
LMESH,ALL
LSEL,S,LINE,,106
LATT,2,,2,,,,107
LESIZE,ALL,,,1
LMESH,ALL
LSEL,S,LINE,,107
LATT,2,,2,,,,108
LESIZE,ALL,,,1
LMESH,ALL
LSEL,S,LINE,,108
LATT,2,,2,,,,109
LESIZE,ALL,,,1
LMESH,ALL
LSEL,S,LINE,,109
LATT,2,,2,,,,110
LESIZE,ALL,,,1
LMESH,ALL
LSEL,S,LINE,,110
LATT,2,,2,,,,111
LESIZE,ALL,,,1
LMESH,ALL
LSEL,S,LINE,,111
LATT,2,,2,,,,112
LESIZE,ALL,,,1
LMESH,ALL
LSEL,S,LINE,,112
LATT,2,,2,,,,113
LESIZE,ALL,,,1
LMESH,ALL
LSEL,S,LINE,,113
LATT,2,,2,,,,114
LESIZE,ALL,,,1
LMESH,ALL
LSEL,S,LINE,,114
LATT,2,,2,,,,115
LESIZE,ALL,,,1
LMESH,ALL
LSEL,S,LINE,,115
LATT,2,,2,,,,116
LESIZE,ALL,,,1
LMESH,ALL
LSEL,S,LINE,,116
LATT,2,,2,,,,117
LESIZE,ALL,,,1
LMESH,ALL
LSEL,S,LINE,,117
LATT,2,,2,,,,118
LESIZE,ALL,,,1
LMESH,ALL
LSEL,S,LINE,,118
LATT,2,,2,,,,119
LESIZE,ALL,,,1
LMESH,ALL
ALLSEL,ALL
CERIG,6,66,ALL
CERIG,16,76,ALL
CERIG,27,87,ALL
CERIG,37,97,ALL
CERIG,47,107,ALL
DK,1,ALL,0
DK,61,ALL,0
DK,27,UZ,0
FK,1,FZ,-0.693200921
FK,61,FZ,-0.192757158
FK,2,FZ,-1.38640184
FK,62,FZ,-0.385514315
FK,3,FZ,18.5128644
FK,63,FZ,-0.385514315
FK,4,FZ,18.433679
FK,64,FZ,-0.385514315
FK,5,FZ,18.3544937
FK,65,FZ,-0.385514315
FK,6,FZ,18.275854
FK,66,FZ,-0.385514315
FK,7,FZ,18.1981813
FK,67,FZ,-0.385514315
FK,8,FZ,18.1205087
FK,68,FZ,-0.385514315
FK,9,FZ,18.0364324
FK,69,FZ,-0.385514315
FK,10,FZ,17.9348589
FK,70,FZ,-0.385514315
! ... 100 like lines cut
FINISH
/SOLU
ANTYPE,STATIC
SOLVE
FINISH
/POST1
SET,LAST
PRRSOL,FZ
FINISH
