  
       XFOIL         Version 6.99
  
 Calculated polar for: FX 76-MP-140                                    
  
 1 1 Reynolds number fixed          Mach number fixed         
  
 xtrf =   1.000 (top)        1.000 (bottom)  
 Mach =   0.000     Re =     0.410 e 6     Ncrit =   9.000  9.000
  
   alpha    CL        CD       CDp       CM     Top_Xtr  Bot_Xtr  Top_Itr  Bot_Itr
  ------ -------- --------- --------- -------- -------- -------- -------- --------
  -4.000   0.4289   0.01505   0.00611  -0.1945   0.7667   0.0597  17.2208 102.4924
  -3.500   0.4818   0.01451   0.00568  -0.1942   0.7616   0.0662  17.5245 103.2001
  -3.000   0.5388   0.01413   0.00531  -0.1945   0.7575   0.0736  17.7686 103.9191
  -2.500   0.5987   0.01366   0.00484  -0.1956   0.7536   0.0835  18.0001 104.7725
  -2.000   0.6473   0.01332   0.00471  -0.1944   0.7473   0.0956  18.3846 105.7014
  -1.500   0.7031   0.01294   0.00441  -0.1945   0.7422   0.1161  18.6900 107.1006
  -1.000   0.7636   0.01253   0.00410  -0.1957   0.7382   0.1599  18.9333 109.6942
  -0.500   0.8133   0.01228   0.00408  -0.1948   0.7315   0.2357  19.3515 113.8537
   0.000   0.8676   0.01159   0.00395  -0.1950   0.7255   0.4502  19.7242 125.5975
   0.500   0.9190   0.01098   0.00400  -0.1938   0.7208   0.7836  20.0144 143.8700
   1.000   0.9599   0.01095   0.00404  -0.1905   0.7127   0.8444  20.5331 147.4572
   1.500   1.0114   0.01065   0.00367  -0.1891   0.7064   0.8969  20.9304 150.7394
   2.000   1.0637   0.01048   0.00353  -0.1884   0.6979   0.9664  21.4699 155.9318
   2.500   1.1271   0.01041   0.00323  -0.1902   0.6909   1.0000  21.9167 160.0000
   3.000   1.1774   0.01052   0.00313  -0.1894   0.6810   1.0000  22.5491 160.0000
   3.500   1.2324   0.01053   0.00286  -0.1895   0.6714   1.0000  23.1659 160.0000
   4.000   1.2830   0.01059   0.00263  -0.1887   0.6598   1.0000  23.9103 160.0000
   4.500   1.3282   0.01076   0.00249  -0.1868   0.6467   1.0000  24.7501 160.0000
   5.000   1.3723   0.01097   0.00232  -0.1848   0.6320   1.0000  25.6883 160.0000
   5.500   1.4124   0.01123   0.00209  -0.1819   0.6141   1.0000  26.8194 160.0000
   6.000   1.4435   0.01160   0.00186  -0.1773   0.5938   1.0000  28.1106 160.0000
   6.500   1.4700   0.01214   0.00173  -0.1720   0.5724   1.0000  29.4609 160.0000
   7.000   1.4945   0.01291   0.00165  -0.1666   0.5492   1.0000  30.9079 160.0000
   7.500   1.5156   0.01392   0.00174  -0.1611   0.5249   1.0000  32.4115 160.0000
   8.000   1.5380   0.01514   0.00198  -0.1562   0.5028   1.0000  33.7673 160.0000
   8.500   1.5603   0.01658   0.00235  -0.1518   0.4813   1.0000  35.0820 160.0000
   9.000   1.5825   0.01821   0.00290  -0.1478   0.4592   1.0000  36.4335 160.0000
   9.500   1.6014   0.02018   0.00361  -0.1436   0.4360   1.0000  37.8472 160.0000
  10.000   1.6189   0.02239   0.00452  -0.1396   0.4107   1.0000  39.3907 160.0000
  10.500   1.6349   0.02481   0.00556  -0.1357   0.3871   1.0000  40.8417 160.0000
  11.000   1.6510   0.02734   0.00673  -0.1321   0.3638   1.0000  42.2704 160.0000
  11.500   1.6612   0.03042   0.00824  -0.1281   0.3370   1.0000  43.9288 160.0000
  12.000   1.6727   0.03359   0.00988  -0.1245   0.3103   1.0000  45.5977 160.0000
  12.500   1.6803   0.03719   0.01184  -0.1209   0.2827   1.0000  47.3339 160.0000
  13.000   1.6847   0.04123   0.01414  -0.1173   0.2554   1.0000  49.0885 160.0000
  13.500   1.6888   0.04542   0.01662  -0.1140   0.2285   1.0000  50.8359 160.0000
  14.000   1.6915   0.04991   0.01938  -0.1108   0.2035   1.0000  52.5010 160.0000
