** Phase 14 beam deck: current_avl_compromise_conservative_closed_lf2
*NODE
1, 0.314193274, 8.5772818e-23, 0.0714391296
2, 0.313078215, 0.14547427, 0.0753224827
3, 0.311963156, 0.29094854, 0.0792058358
4, 0.310841182, 0.436425536, 0.0831099597
5, 0.309719207, 0.581902533, 0.0870140837
6, 0.308594824, 0.72738272, 0.0909187029
7, 0.307470441, 0.872862908, 0.0948233222
8, 0.30636555, 1.01834712, 0.0986967023
9, 0.305260659, 1.16383133, 0.102570082
10, 0.30424296, 1.30932098, 0.106369566
11, 0.303225261, 1.45481063, 0.110169049
12, 0.30208333, 1.60029983, 0.113921428
13, 0.300941398, 1.74578903, 0.117673807
14, 0.29967395, 1.89127952, 0.12147733
15, 0.298406501, 2.03677, 0.125280853
16, 0.297256362, 2.18226368, 0.129135132
17, 0.296106224, 2.32775737, 0.132989411
18, 0.29504755, 2.47325429, 0.136883303
19, 0.293988876, 2.61875122, 0.140777194
20, 0.292787835, 2.76426281, 0.14624962
** ... 218 like lines cut
*ELEMENT, TYPE=B32R, ELSET=MAIN_E1
1, 1, 2, 3
*ELEMENT, TYPE=B32R, ELSET=MAIN_E2
2, 3, 4, 5
*ELEMENT, TYPE=B32R, ELSET=MAIN_E3
3, 5, 6, 7
*ELEMENT, TYPE=B32R, ELSET=MAIN_E4
4, 7, 8, 9
*ELEMENT, TYPE=B32R, ELSET=MAIN_E5
5, 9, 10, 11
*ELEMENT, TYPE=B32R, ELSET=MAIN_E6
6, 11, 12, 13
*ELEMENT, TYPE=B32R, ELSET=MAIN_E7
7, 13, 14, 15
*ELEMENT, TYPE=B32R, ELSET=MAIN_E8
8, 15, 16, 17
*ELEMENT, TYPE=B32R, ELSET=MAIN_E9
9, 17, 18, 19
*ELEMENT, TYPE=B32R, ELSET=MAIN_E10
10, 19, 20, 21
*ELEMENT, TYPE=B32R, ELSET=MAIN_E11
11, 21, 22, 23
*ELEMENT, TYPE=B32R, ELSET=MAIN_E12
12, 23, 24, 25
*ELEMENT, TYPE=B32R, ELSET=MAIN_E13
13, 25, 26, 27
*ELEMENT, TYPE=B32R, ELSET=MAIN_E14
14, 27, 28, 29
*ELEMENT, TYPE=B32R, ELSET=MAIN_E15
15, 29, 30, 31
*ELEMENT, TYPE=B32R, ELSET=MAIN_E16
16, 31, 32, 33
*ELEMENT, TYPE=B32R, ELSET=MAIN_E17
17, 33, 34, 35
*ELEMENT, TYPE=B32R, ELSET=MAIN_E18
18, 35, 36, 37
*ELEMENT, TYPE=B32R, ELSET=MAIN_E19
19, 37, 38, 39
*ELEMENT, TYPE=B32R, ELSET=MAIN_E20
20, 39, 40, 41
** ... 78 like lines cut
*ELEMENT, TYPE=B32R, ELSET=REAR_E1
60, 120, 121, 122
*ELEMENT, TYPE=B32R, ELSET=REAR_E2
61, 122, 123, 124
*ELEMENT, TYPE=B32R, ELSET=REAR_E3
62, 124, 125, 126
*ELEMENT, TYPE=B32R, ELSET=REAR_E4
63, 126, 127, 128
*ELEMENT, TYPE=B32R, ELSET=REAR_E5
64, 128, 129, 130
*ELEMENT, TYPE=B32R, ELSET=REAR_E6
65, 130, 131, 132
*ELEMENT, TYPE=B32R, ELSET=REAR_E7
66, 132, 133, 134
*ELEMENT, TYPE=B32R, ELSET=REAR_E8
67, 134, 135, 136
*ELEMENT, TYPE=B32R, ELSET=REAR_E9
68, 136, 137, 138
*ELEMENT, TYPE=B32R, ELSET=REAR_E10
69, 138, 139, 140
*ELEMENT, TYPE=B32R, ELSET=REAR_E11
70, 140, 141, 142
*ELEMENT, TYPE=B32R, ELSET=REAR_E12
71, 142, 143, 144
*ELEMENT, TYPE=B32R, ELSET=REAR_E13
72, 144, 145, 146
*ELEMENT, TYPE=B32R, ELSET=REAR_E14
73, 146, 147, 148
*ELEMENT, TYPE=B32R, ELSET=REAR_E15
74, 148, 149, 150
*ELEMENT, TYPE=B32R, ELSET=REAR_E16
75, 150, 151, 152
*ELEMENT, TYPE=B32R, ELSET=REAR_E17
76, 152, 153, 154
*ELEMENT, TYPE=B32R, ELSET=REAR_E18
77, 154, 155, 156
*ELEMENT, TYPE=B32R, ELSET=REAR_E19
78, 156, 157, 158
*ELEMENT, TYPE=B32R, ELSET=REAR_E20
79, 158, 159, 160
** ... 78 like lines cut
*NSET, NSET=ROOT_MAIN
1
*NSET, NSET=TIP_MAIN
119
*NSET, NSET=ROOT_REAR
120
*NSET, NSET=TIP_REAR
238
*NSET, NSET=WIRE_MAIN
53
*NSET, NSET=WIRE_REAR_LINK
172
*NSET, NSET=HPA_SUPPORT_ROOT
1, 120
*NSET, NSET=HPA_SUPPORT_WIRE
53, 172
*NSET, NSET=HPA_SUPPORT_ALL
1, 53, 120, 172
*MATERIAL, NAME=CARBON_FIBER_HM_MAIN
*ELASTIC
2.3e+11, 0.27
*DENSITY
1600
*MATERIAL, NAME=CARBON_FIBER_HM_REAR
*ELASTIC
2.3e+11, 0.27
*DENSITY
1600
*BEAM SECTION,ELSET=MAIN_E1,MATERIAL=CARBON_FIBER_HM_MAIN,SECTION=PIPE
0.0349239, 0.0008
1.0, 0.0, 0.0
*BEAM SECTION,ELSET=MAIN_E2,MATERIAL=CARBON_FIBER_HM_MAIN,SECTION=PIPE
0.0349239, 0.0008
1.0, 0.0, 0.0
*BEAM SECTION,ELSET=MAIN_E3,MATERIAL=CARBON_FIBER_HM_MAIN,SECTION=PIPE
0.0349239, 0.0008
1.0, 0.0, 0.0
*BEAM SECTION,ELSET=MAIN_E4,MATERIAL=CARBON_FIBER_HM_MAIN,SECTION=PIPE
0.0349239, 0.0008
1.0, 0.0, 0.0
*BEAM SECTION,ELSET=MAIN_E5,MATERIAL=CARBON_FIBER_HM_MAIN,SECTION=PIPE
0.0349239, 0.0008
1.0, 0.0, 0.0
*BEAM SECTION,ELSET=MAIN_E6,MATERIAL=CARBON_FIBER_HM_MAIN,SECTION=PIPE
0.0349239, 0.0008
1.0, 0.0, 0.0
*BEAM SECTION,ELSET=MAIN_E7,MATERIAL=CARBON_FIBER_HM_MAIN,SECTION=PIPE
0.0349239, 0.0008
1.0, 0.0, 0.0
*BEAM SECTION,ELSET=MAIN_E8,MATERIAL=CARBON_FIBER_HM_MAIN,SECTION=PIPE
0.0349239, 0.0008
1.0, 0.0, 0.0
*BEAM SECTION,ELSET=MAIN_E9,MATERIAL=CARBON_FIBER_HM_MAIN,SECTION=PIPE
0.0349239, 0.0008
1.0, 0.0, 0.0
*BEAM SECTION,ELSET=MAIN_E10,MATERIAL=CARBON_FIBER_HM_MAIN,SECTION=PIPE
0.0349239, 0.0008
1.0, 0.0, 0.0
*BEAM SECTION,ELSET=MAIN_E11,MATERIAL=CARBON_FIBER_HM_MAIN,SECTION=PIPE
0.0349239, 0.0008
1.0, 0.0, 0.0
*BEAM SECTION,ELSET=MAIN_E12,MATERIAL=CARBON_FIBER_HM_MAIN,SECTION=PIPE
0.0349239, 0.0008
1.0, 0.0, 0.0
*BEAM SECTION,ELSET=MAIN_E13,MATERIAL=CARBON_FIBER_HM_MAIN,SECTION=PIPE
0.0349239, 0.0008
1.0, 0.0, 0.0
*BEAM SECTION,ELSET=MAIN_E14,MATERIAL=CARBON_FIBER_HM_MAIN,SECTION=PIPE
0.0349239, 0.0008
1.0, 0.0, 0.0
*BEAM SECTION,ELSET=MAIN_E15,MATERIAL=CARBON_FIBER_HM_MAIN,SECTION=PIPE
0.0349239, 0.0008
1.0, 0.0, 0.0
*BEAM SECTION,ELSET=MAIN_E16,MATERIAL=CARBON_FIBER_HM_MAIN,SECTION=PIPE
0.0349239, 0.0008
1.0, 0.0, 0.0
*BEAM SECTION,ELSET=MAIN_E17,MATERIAL=CARBON_FIBER_HM_MAIN,SECTION=PIPE
0.0349239, 0.0008
1.0, 0.0, 0.0
*BEAM SECTION,ELSET=MAIN_E18,MATERIAL=CARBON_FIBER_HM_MAIN,SECTION=PIPE
0.0349239, 0.0008
1.0, 0.0, 0.0
*BEAM SECTION,ELSET=MAIN_E19,MATERIAL=CARBON_FIBER_HM_MAIN,SECTION=PIPE
0.0349239, 0.0008
1.0, 0.0, 0.0
*BEAM SECTION,ELSET=MAIN_E20,MATERIAL=CARBON_FIBER_HM_MAIN,SECTION=PIPE
0.0349239, 0.0008
** ... 118 like lines cut
*BEAM SECTION,ELSET=REAR_E1,MATERIAL=CARBON_FIBER_HM_REAR,SECTION=PIPE
0.01, 0.0008
1.0, 0.0, 0.0
*BEAM SECTION,ELSET=REAR_E2,MATERIAL=CARBON_FIBER_HM_REAR,SECTION=PIPE
0.01, 0.0008
1.0, 0.0, 0.0
*BEAM SECTION,ELSET=REAR_E3,MATERIAL=CARBON_FIBER_HM_REAR,SECTION=PIPE
0.01, 0.0008
1.0, 0.0, 0.0
*BEAM SECTION,ELSET=REAR_E4,MATERIAL=CARBON_FIBER_HM_REAR,SECTION=PIPE
0.01, 0.0008
1.0, 0.0, 0.0
*BEAM SECTION,ELSET=REAR_E5,MATERIAL=CARBON_FIBER_HM_REAR,SECTION=PIPE
0.01, 0.0008
1.0, 0.0, 0.0
*BEAM SECTION,ELSET=REAR_E6,MATERIAL=CARBON_FIBER_HM_REAR,SECTION=PIPE
0.01, 0.0008
1.0, 0.0, 0.0
*BEAM SECTION,ELSET=REAR_E7,MATERIAL=CARBON_FIBER_HM_REAR,SECTION=PIPE
0.01, 0.0008
1.0, 0.0, 0.0
*BEAM SECTION,ELSET=REAR_E8,MATERIAL=CARBON_FIBER_HM_REAR,SECTION=PIPE
0.01, 0.0008
1.0, 0.0, 0.0
*BEAM SECTION,ELSET=REAR_E9,MATERIAL=CARBON_FIBER_HM_REAR,SECTION=PIPE
0.01, 0.0008
1.0, 0.0, 0.0
*BEAM SECTION,ELSET=REAR_E10,MATERIAL=CARBON_FIBER_HM_REAR,SECTION=PIPE
0.01, 0.0008
1.0, 0.0, 0.0
*BEAM SECTION,ELSET=REAR_E11,MATERIAL=CARBON_FIBER_HM_REAR,SECTION=PIPE
0.01, 0.0008
1.0, 0.0, 0.0
*BEAM SECTION,ELSET=REAR_E12,MATERIAL=CARBON_FIBER_HM_REAR,SECTION=PIPE
0.01, 0.0008
1.0, 0.0, 0.0
*BEAM SECTION,ELSET=REAR_E13,MATERIAL=CARBON_FIBER_HM_REAR,SECTION=PIPE
0.01, 0.0008
1.0, 0.0, 0.0
*BEAM SECTION,ELSET=REAR_E14,MATERIAL=CARBON_FIBER_HM_REAR,SECTION=PIPE
0.01, 0.0008
1.0, 0.0, 0.0
*BEAM SECTION,ELSET=REAR_E15,MATERIAL=CARBON_FIBER_HM_REAR,SECTION=PIPE
0.01, 0.0008
1.0, 0.0, 0.0
*BEAM SECTION,ELSET=REAR_E16,MATERIAL=CARBON_FIBER_HM_REAR,SECTION=PIPE
0.01, 0.0008
1.0, 0.0, 0.0
*BEAM SECTION,ELSET=REAR_E17,MATERIAL=CARBON_FIBER_HM_REAR,SECTION=PIPE
0.01, 0.0008
1.0, 0.0, 0.0
*BEAM SECTION,ELSET=REAR_E18,MATERIAL=CARBON_FIBER_HM_REAR,SECTION=PIPE
0.01, 0.0008
1.0, 0.0, 0.0
*BEAM SECTION,ELSET=REAR_E19,MATERIAL=CARBON_FIBER_HM_REAR,SECTION=PIPE
0.01, 0.0008
1.0, 0.0, 0.0
*BEAM SECTION,ELSET=REAR_E20,MATERIAL=CARBON_FIBER_HM_REAR,SECTION=PIPE
0.01, 0.0008
1.0, 0.0, 0.0
** ... 117 like lines cut
*EQUATION
2
11, 1, 1.0, 130, 1, -1.0
*EQUATION
2
11, 2, 1.0, 130, 2, -1.0
*EQUATION
2
11, 3, 1.0, 130, 3, -1.0
*EQUATION
2
11, 4, 1.0, 130, 4, -1.0
*EQUATION
2
11, 5, 1.0, 130, 5, -1.0
*EQUATION
2
11, 6, 1.0, 130, 6, -1.0
*EQUATION
2
31, 1, 1.0, 150, 1, -1.0
*EQUATION
2
31, 2, 1.0, 150, 2, -1.0
*EQUATION
2
31, 3, 1.0, 150, 3, -1.0
*EQUATION
2
31, 4, 1.0, 150, 4, -1.0
*EQUATION
2
31, 5, 1.0, 150, 5, -1.0
*EQUATION
2
31, 6, 1.0, 150, 6, -1.0
*EQUATION
2
53, 1, 1.0, 172, 1, -1.0
*EQUATION
2
53, 2, 1.0, 172, 2, -1.0
*EQUATION
2
172, 3, 1.0, 53, 3, -1.0
*EQUATION
2
53, 4, 1.0, 172, 4, -1.0
*EQUATION
2
53, 5, 1.0, 172, 5, -1.0
*EQUATION
2
53, 6, 1.0, 172, 6, -1.0
*EQUATION
2
73, 1, 1.0, 192, 1, -1.0
*EQUATION
2
73, 2, 1.0, 192, 2, -1.0
*EQUATION
2
73, 3, 1.0, 192, 3, -1.0
*EQUATION
2
73, 4, 1.0, 192, 4, -1.0
*EQUATION
2
73, 5, 1.0, 192, 5, -1.0
*EQUATION
2
73, 6, 1.0, 192, 6, -1.0
*EQUATION
2
93, 1, 1.0, 212, 1, -1.0
*EQUATION
2
93, 2, 1.0, 212, 2, -1.0
*EQUATION
2
93, 3, 1.0, 212, 3, -1.0
*EQUATION
2
93, 4, 1.0, 212, 4, -1.0
*EQUATION
2
93, 5, 1.0, 212, 5, -1.0
*EQUATION
2
93, 6, 1.0, 212, 6, -1.0
*BOUNDARY
1, 1, 6
120, 1, 6
53, 3, 3, 0.0
*STEP
*STATIC
1.0, 1.0
*CLOAD
1, 3, -0.792229624
120, 3, -0.220293895
3, 3, -1.58445925
122, 3, -0.440587789
5, 3, 21.1575593
124, 3, -0.440587789
7, 3, 21.0670617
126, 3, -0.440587789
9, 3, 20.9765642
128, 3, -0.440587789
11, 3, 20.8866903
130, 3, -0.440587789
13, 3, 20.7979215
132, 3, -0.440587789
15, 3, 20.7091528
134, 3, -0.440587789
17, 3, 20.6130656
136, 3, -0.440587789
19, 3, 20.4969816
138, 3, -0.440587789
** ... 100 like lines cut
*NODE PRINT, NSET=HPA_SUPPORT_ALL, TOTALS=ONLY
RF
*NODE PRINT, NSET=HPA_SUPPORT_ROOT, TOTALS=ONLY
RF
*NODE PRINT, NSET=HPA_SUPPORT_WIRE, TOTALS=ONLY
RF
*NODE FILE, OUTPUT=2D
U
*END STEP
